ipss.tutorial/testData/psse/ACTIVSg25k.RAW
 0,    100.00, 33, 0, 0, 60.00       / May 31, 2018 13:35:10; Simulator Version 20; BuildDate 2017_10_19


11001,'NEWBERRY 1  ', 138.0000,1,  11,   1,   1,1.01003194, -10.509790, 1.10000, 0.90000, 1.10000, 0.90000
11002,'NEWBERRY 2  ',  69.0000,1,  11,   1,   1,1.02160823, -10.930820, 1.10000, 0.90000, 1.10000, 0.90000
11003,'NEWBERRY 3  ',  18.0000,1,  11,   1,   1,1.03104162, -11.265503, 1.10000, 0.90000, 1.10000, 0.90000
11005,'NEWBERRY 5  ', 138.0000,1,  11,   1,   1,1.00977838, -10.541924, 1.10000, 0.90000, 1.10000, 0.90000
11006,'NEWBERRY 7  ', 138.0000,1,  11,   1,   1,1.01020253, -10.477534, 1.10000, 0.90000, 1.10000, 0.90000
11007,'POMARIA 1   ',  69.0000,1,  11,   1,   1,1.04204226, -12.240239, 1.10000, 0.90000, 1.10000, 0.90000
11008,'POMARIA 2   ',  69.0000,1,  11,   1,   1,1.04201376, -12.243543, 1.10000, 0.90000, 1.10000, 0.90000
11009,'WHITMIRE 1  ',  69.0000,1,  11,   1,   1,1.03268898, -13.076810, 1.10000, 0.90000, 1.10000, 0.90000
11010,'WHITMIRE 2  ',  69.0000,1,  11,   1,   1,1.03275275, -13.069502, 1.10000, 0.90000, 1.10000, 0.90000
11011,'SPARTANBUR~1',  69.0000,1,  11,   1,   1,1.03934622, -14.211863, 1.10000, 0.90000, 1.10000, 0.90000
11012,'SPARTANBUR~2',  69.0000,1,  11,   1,   1,1.03919947, -14.235278, 1.10000, 0.90000, 1.10000, 0.90000
11013,'SPARTANBUR~3',  69.0000,1,  11,   1,   1,1.03901637, -14.181684, 1.10000, 0.90000, 1.10000, 0.90000
11014,'SPARTANBUR~4',  69.0000,1,  11,   1,   1,1.03934622, -14.211863, 1.10000, 0.90000, 1.10000, 0.90000
11015,'SPARTANBUR~5',  69.0000,1,  11,   1,   1,1.03934622, -14.211863, 1.10000, 0.90000, 1.10000, 0.90000
11016,'SPARTANBUR~6', 138.0000,1,  11,   1,   1,1.01025188,  -9.645662, 1.10000, 0.90000, 1.10000, 0.90000
11017,'SPARTANBUR~7',  69.0000,1,  11,   1,   1,1.03681552, -12.610327, 1.10000, 0.90000, 1.10000, 0.90000
11018,'SPARTANBUR~8', 138.0000,1,  11,   1,   1,1.01001787,  -9.671422, 1.10000, 0.90000, 1.10000, 0.90000
11019,'SPARTANBUR~9', 138.0000,1,  11,   1,   1,1.02006233,  -9.658117, 1.10000, 0.90000, 1.10000, 0.90000
11020,'SPARTANBU~10', 138.0000,1,  11,   1,   1,1.01958525,  -9.682113, 1.10000, 0.90000, 1.10000, 0.90000
11021,'SPARTANBU~11',  69.0000,1,  11,   1,   1,1.04086149, -14.279223, 1.10000, 0.90000, 1.10000, 0.90000
11022,'SPARTANBU~12',  69.0000,1,  11,   1,   1,1.04062665, -14.296565, 1.10000, 0.90000, 1.10000, 0.90000
11023,'SPARTANBU~13',  69.0000,1,  11,   1,   1,1.02593803, -13.181377, 1.10000, 0.90000, 1.10000, 0.90000
11024,'SPARTANBU~14',  69.0000,1,  11,   1,   1,1.03283179, -13.473465, 1.10000, 0.90000, 1.10000, 0.90000
11025,'SPARTANBU~15',  69.0000,1,  11,   1,   1,1.03299069, -13.448342, 1.10000, 0.90000, 1.10000, 0.90000
11026,'SPARTANBU~16',  69.0000,1,  11,   1,   1,1.03265810, -13.499629, 1.10000, 0.90000, 1.10000, 0.90000
11027,'SPARTANBU~17', 138.0000,1,  11,   1,   1,1.02101362,  -9.472908, 1.10000, 0.90000, 1.10000, 0.90000
11028,'SPARTANBU~18',  69.0000,1,  11,   1,   1,1.04196358, -13.651766, 1.10000, 0.90000, 1.10000, 0.90000
11029,'SPARTANBU~19', 138.0000,1,  11,   1,   1,1.02078128,  -9.500826, 1.10000, 0.90000, 1.10000, 0.90000
11030,'BOILING SP~3', 345.0000,1,  11,   1,   1,1.03444910,  -7.703470, 1.10000, 0.90000, 1.10000, 0.90000
11031,'BOILING SP~4', 138.0000,1,  11,   1,   1,1.02621460,  -9.692391, 1.10000, 0.90000, 1.10000, 0.90000
11032,'BOILING SP~5',  24.0000,1,  11,   1,   1,1.02093685, -11.180889, 1.10000, 0.90000, 1.10000, 0.90000
11034,'BOILING SP~7', 345.0000,1,  11,   1,   1,1.03511715,  -7.623150, 1.10000, 0.90000, 1.10000, 0.90000
11035,'BOILING SP~8', 345.0000,1,  11,   1,   1,1.03444910,  -7.703470, 1.10000, 0.90000, 1.10000, 0.90000
11036,'CAMPOBELLO 1',  69.0000,1,  11,   1,   1,1.03481472, -13.824064, 1.10000, 0.90000, 1.10000, 0.90000
11037,'CHESNEE 1 1 ',  69.0000,1,  11,   1,   1,1.03905714, -15.210532, 1.10000, 0.90000, 1.10000, 0.90000
11038,'CHESNEE 1 2 ',  69.0000,1,  11,   1,   1,1.03880763, -15.231419, 1.10000, 0.90000, 1.10000, 0.90000
11039,'CLINTON 12 1', 138.0000,1,  11,   1,   1,1.01854134,  -8.682270, 1.10000, 0.90000, 1.10000, 0.90000
11040,'COWPENS 1   ',  69.0000,1,  11,   1,   1,1.03751135, -14.283701, 1.10000, 0.90000, 1.10000, 0.90000
11041,'DUNCAN 1    ',  69.0000,1,  11,   1,   1,1.02366912, -12.556418, 1.10000, 0.90000, 1.10000, 0.90000
11042,'DUNCAN 2    ',  69.0000,1,  11,   1,   1,1.02357173, -12.573191, 1.10000, 0.90000, 1.10000, 0.90000
11043,'ENOREE 1    ',  69.0000,1,  11,   1,   1,1.00551200, -13.237640, 1.10000, 0.90000, 1.10000, 0.90000
11044,'ENOREE 2    ',  69.0000,1,  11,   1,   1,1.00558376, -13.228214, 1.10000, 0.90000, 1.10000, 0.90000
11045,'ENOREE 4    ',  69.0000,1,  11,   1,   1,1.00544667, -13.246255, 1.10000, 0.90000, 1.10000, 0.90000
11046,'ENOREE 6    ',  69.0000,1,  11,   1,   1,1.00551200, -13.237640, 1.10000, 0.90000, 1.10000, 0.90000
11047,'GAFFNEY 1 1 ', 138.0000,1,  11,   1,   1,1.03793895, -12.600108, 1.10000, 0.90000, 1.10000, 0.90000
11048,'GAFFNEY 1 2 ',  69.0000,1,  11,   1,   1,1.04490292, -13.593320, 1.10000, 0.90000, 1.10000, 0.90000
11049,'GAFFNEY 1 3 ', 138.0000,1,  11,   1,   1,1.03811216, -12.596338, 1.10000, 0.90000, 1.10000, 0.90000
11050,'GAFFNEY 2 1 ',  69.0000,1,  11,   1,   1,1.04046750, -13.468112, 1.10000, 0.90000, 1.10000, 0.90000
11051,'GAFFNEY 2 2 ',  69.0000,1,  11,   1,   1,1.04019523, -13.494726, 1.10000, 0.90000, 1.10000, 0.90000
11052,'INMAN 1 1   ', 138.0000,1,  11,   1,   1,1.01482916, -10.468931, 1.10000, 0.90000, 1.10000, 0.90000
11053,'INMAN 2 1   ', 138.0000,1,  11,   1,   1,1.00869942, -10.456000, 1.10000, 0.90000, 1.10000, 0.90000
11054,'INMAN 2 2   ',  69.0000,1,  11,   1,   1,1.02690315, -12.323657, 1.10000, 0.90000, 1.10000, 0.90000
11055,'INMAN 2 3   ', 138.0000,1,  11,   1,   1,1.00840950, -10.475969, 1.10000, 0.90000, 1.10000, 0.90000
11056,'JONESVILLE~7',  69.0000,1,  11,   1,   1,1.00830400, -14.149603, 1.10000, 0.90000, 1.10000, 0.90000
11057,'LANDRUM 1   ',  69.0000,1,  11,   1,   1,1.03338587, -13.898879, 1.10000, 0.90000, 1.10000, 0.90000
11058,'LANDRUM 2   ',  69.0000,1,  11,   1,   1,1.03331995, -13.910680, 1.10000, 0.90000, 1.10000, 0.90000
11059,'LANDRUM 4   ',  69.0000,1,  11,   1,   1,1.03314853, -13.881773, 1.10000, 0.90000, 1.10000, 0.90000
11060,'LANDRUM 6   ',  69.0000,1,  11,   1,   1,1.03338587, -13.898879, 1.10000, 0.90000, 1.10000, 0.90000
11061,'LAURENS 1   ', 345.0000,1,  11,   1,   1,1.03151762,  -3.917975, 1.10000, 0.90000, 1.10000, 0.90000
11062,'LAURENS 2   ', 138.0000,1,  11,   1,   1,1.02893758,  -6.263105, 1.10000, 0.90000, 1.10000, 0.90000
11063,'LAURENS 3   ',  69.0000,1,  11,   1,   1,1.02418232,  -9.471307, 1.10000, 0.90000, 1.10000, 0.90000
11064,'LAURENS 4   ', 345.0000,1,  11,   1,   1,1.03121209,  -3.950598, 1.10000, 0.90000, 1.10000, 0.90000
11065,'LAURENS 6   ', 138.0000,1,  11,   1,   1,1.02868378,  -6.328298, 1.10000, 0.90000, 1.10000, 0.90000
11066,'LYMAN 1     ',  69.0000,1,  11,   1,   1,1.02546144, -12.658065, 1.10000, 0.90000, 1.10000, 0.90000
11067,'LYMAN 2     ',  69.0000,1,  11,   1,   1,1.02528071, -12.672889, 1.10000, 0.90000, 1.10000, 0.90000
11068,'MOORE 1     ',  69.0000,1,  11,   1,   1,1.02314663, -12.480826, 1.10000, 0.90000, 1.10000, 0.90000
11069,'MOORE 2     ',  69.0000,1,  11,   1,   1,1.02335823, -12.460813, 1.10000, 0.90000, 1.10000, 0.90000
11070,'PACOLET 1 1 ',  69.0000,1,  11,   1,   1,1.00770020, -14.423000, 1.10000, 0.90000, 1.10000, 0.90000
11071,'PACOLET 1 2 ',  69.0000,1,  11,   1,   1,1.00763643, -14.429350, 1.10000, 0.90000, 1.10000, 0.90000
11072,'ROEBUCK 1   ',  69.0000,1,  11,   1,   1,1.01732552, -11.004878, 1.10000, 0.90000, 1.10000, 0.90000
11073,'ROEBUCK 2   ',  69.0000,1,  11,   1,   1,1.01738954, -10.993878, 1.10000, 0.90000, 1.10000, 0.90000
11074,'UNION 4 1   ', 138.0000,1,  11,   1,   1,1.02413750, -13.366685, 1.10000, 0.90000, 1.10000, 0.90000
11075,'UNION 4 2   ', 138.0000,1,  11,   1,   1,1.02375579, -13.399411, 1.10000, 0.90000, 1.10000, 0.90000
11076,'WELLFORD 1 1',  69.0000,1,  11,   1,   1,1.02424443, -12.231395, 1.10000, 0.90000, 1.10000, 0.90000
11077,'WELLFORD 1 2',  69.0000,1,  11,   1,   1,1.02417457, -12.242310, 1.10000, 0.90000, 1.10000, 0.90000
11078,'WOODRUFF 1  ', 138.0000,1,  11,   1,   1,1.00908136,  -9.048095, 1.10000, 0.90000, 1.10000, 0.90000
11079,'WOODRUFF 2  ',  69.0000,1,  11,   1,   1,1.03186035, -10.295963, 1.10000, 0.90000, 1.10000, 0.90000
11080,'WOODRUFF 3  ', 138.0000,1,  11,   1,   1,1.00884891,  -9.073809, 1.10000, 0.90000, 1.10000, 0.90000
11081,'WOODRUFF 5  ', 138.0000,1,  11,   1,   1,1.00948954,  -9.015463, 1.10000, 0.90000, 1.10000, 0.90000
11082,'GREENVILL~16',  69.0000,1,  11,   1,   1,1.02520907,  -9.286611, 1.10000, 0.90000, 1.10000, 0.90000
11083,'GREENVILL~17',  69.0000,1,  11,   1,   1,1.02510226,  -9.302867, 1.10000, 0.90000, 1.10000, 0.90000
11084,'GREENVILL~18',  69.0000,1,  11,   1,   1,1.01291227, -10.069910, 1.10000, 0.90000, 1.10000, 0.90000
11085,'GREENVILL~19', 138.0000,1,  11,   1,   1,1.02941048,  -5.127268, 1.10000, 0.90000, 1.10000, 0.90000
11086,'GREENVILL~20',  69.0000,1,  11,   1,   1,1.02209151,  -9.224121, 1.10000, 0.90000, 1.10000, 0.90000
11087,'GREENVILL~21',  13.8000,1,  11,   1,   1,1.02639818,  -6.481475, 1.10000, 0.90000, 1.10000, 0.90000
11089,'GREENVILL~23', 138.0000,1,  11,   1,   1,1.02959621,  -5.098051, 1.10000, 0.90000, 1.10000, 0.90000
11090,'GREENVILL~24',  69.0000,1,  11,   1,   1,1.01633143,  -9.704515, 1.10000, 0.90000, 1.10000, 0.90000
11091,'GREENVILL~25', 345.0000,1,  11,   1,   1,1.03544581,  -1.930720, 1.10000, 0.90000, 1.10000, 0.90000
11092,'GREENVILL~26', 138.0000,1,  11,   1,   1,1.03775978,  -4.701881, 1.10000, 0.90000, 1.10000, 0.90000
11093,'GREENVILL~27',  69.0000,1,  11,   1,   1,1.03729916,  -8.456433, 1.10000, 0.90000, 1.10000, 0.90000
11094,'GREENVILL~28', 138.0000,1,  11,   1,   1,1.03734970,  -4.728575, 1.10000, 0.90000, 1.10000, 0.90000
11095,'GREENVILL~30',  69.0000,1,  11,   1,   1,1.02222979,  -9.359256, 1.10000, 0.90000, 1.10000, 0.90000
11096,'GREENVILL~31',  69.0000,1,  11,   1,   1,1.02066123,  -9.083574, 1.10000, 0.90000, 1.10000, 0.90000
11097,'GREENVILL~32',  69.0000,1,  11,   1,   1,1.02309871,  -9.018442, 1.10000, 0.90000, 1.10000, 0.90000
11098,'GREENVILL~33',  69.0000,1,  11,   1,   1,1.02537215,  -9.005456, 1.10000, 0.90000, 1.10000, 0.90000
11099,'GREENVILL~34',  69.0000,1,  11,   1,   1,1.02510571,  -9.027454, 1.10000, 0.90000, 1.10000, 0.90000
11100,'GREENVILL~35',  69.0000,1,  11,   1,   1,1.02266145, -10.217787, 1.10000, 0.90000, 1.10000, 0.90000
11101,'GREENVILL~36', 138.0000,1,  11,   1,   1,1.03463268,  -5.182850, 1.10000, 0.90000, 1.10000, 0.90000
11102,'GREENVILL~37', 138.0000,1,  11,   1,   1,1.03442442,  -5.206844, 1.10000, 0.90000, 1.10000, 0.90000
11103,'GREENVILL~38', 138.0000,1,  11,   1,   1,1.02716506,  -4.486755, 1.10000, 0.90000, 1.10000, 0.90000
11104,'GREENVILL~39',  69.0000,1,  11,   1,   1,1.03284073,  -8.057081, 1.10000, 0.90000, 1.10000, 0.90000
11105,'GREENVILL~40', 138.0000,1,  11,   1,   1,1.02699625,  -4.505236, 1.10000, 0.90000, 1.10000, 0.90000
11106,'GREENVILL~41', 138.0000,1,  11,   1,   1,1.02764571,  -4.449357, 1.10000, 0.90000, 1.10000, 0.90000
11107,'GREENVILL~42', 138.0000,1,  11,   1,   1,1.02713394,  -4.490484, 1.10000, 0.90000, 1.10000, 0.90000
11108,'GREENVILL~43',  69.0000,1,  11,   1,   1,1.02185071,  -9.297446, 1.10000, 0.90000, 1.10000, 0.90000
11109,'ABBEVILLE ~1', 138.0000,1,  11,   1,   1,1.01933181,  -3.431199, 1.10000, 0.90000, 1.10000, 0.90000
11110,'ANDERSON 1 1', 138.0000,1,  11,   1,   1,1.02543926,  -2.767241, 1.10000, 0.90000, 1.10000, 0.90000
11111,'ANDERSON 1 2',  69.0000,1,  11,   1,   1,1.03397489,  -5.377527, 1.10000, 0.90000, 1.10000, 0.90000
11112,'ANDERSON 1 3', 138.0000,1,  11,   1,   1,1.02600491,  -2.718572, 1.10000, 0.90000, 1.10000, 0.90000
11113,'ANDERSON 2 1', 138.0000,1,  11,   1,   1,1.02448678,  -3.303329, 1.10000, 0.90000, 1.10000, 0.90000
11114,'ANDERSON 2 2',  69.0000,1,  11,   1,   1,1.03266335,  -4.667521, 1.10000, 0.90000, 1.10000, 0.90000
11115,'ANDERSON 2 3', 138.0000,1,  11,   1,   1,1.02433157,  -3.330654, 1.10000, 0.90000, 1.10000, 0.90000
11116,'ANDERSON 2 5', 138.0000,1,  11,   1,   1,1.02475715,  -3.266290, 1.10000, 0.90000, 1.10000, 0.90000
11117,'ANDERSON 3 1', 138.0000,1,  11,   1,   1,1.02508199,  -1.498984, 1.10000, 0.90000, 1.10000, 0.90000
11118,'ANDERSON 4 1', 138.0000,1,  11,   1,   1,1.02823961,  -0.803895, 1.10000, 0.90000, 1.10000, 0.90000
11119,'ANDERSON 4 2', 138.0000,1,  11,   1,   1,1.02780914,  -0.824205, 1.10000, 0.90000, 1.10000, 0.90000
11120,'ANDERSON 5 1',  69.0000,1,  11,   1,   1,1.00997925,  -6.139776, 1.10000, 0.90000, 1.10000, 0.90000
11121,'ANDERSON 6 1',  69.0000,1,  11,   1,   1,1.02369654,  -3.982779, 1.10000, 0.90000, 1.10000, 0.90000
11122,'ANDERSON 6 2',  69.0000,1,  11,   1,   1,1.02358294,  -4.001771, 1.10000, 0.90000, 1.10000, 0.90000
11123,'ANDERSON 6 4',  69.0000,1,  11,   1,   1,1.02382720,  -3.962558, 1.10000, 0.90000, 1.10000, 0.90000
11124,'BELTON 1    ',  69.0000,1,  11,   1,   1,1.02997279,  -5.725178, 1.10000, 0.90000, 1.10000, 0.90000
11125,'BELTON 2    ',  69.0000,1,  11,   1,   1,1.02977049,  -5.753532, 1.10000, 0.90000, 1.10000, 0.90000
11126,'CALHOUN FA~1',  69.0000,1,  11,   1,   1,1.00975180,  -8.133501, 1.10000, 0.90000, 1.10000, 0.90000
11127,'CALHOUN FA~2',  69.0000,1,  11,   1,   1,1.00971329,  -8.138145, 1.10000, 0.90000, 1.10000, 0.90000
11128,'CENTRAL 1   ',  69.0000,1,  11,   1,   1,1.00402761,  -7.653836, 1.10000, 0.90000, 1.10000, 0.90000
11129,'CLEMSON 1 1 ', 138.0000,1,  11,   1,   1,1.03029776,  -2.290464, 1.10000, 0.90000, 1.10000, 0.90000
11130,'CLEMSON 2 1 ',  69.0000,1,  11,   1,   1,1.01085126,  -7.184967, 1.10000, 0.90000, 1.10000, 0.90000
11131,'CLEMSON 2 2 ',  69.0000,1,  11,   1,   1,1.01077855,  -7.192979, 1.10000, 0.90000, 1.10000, 0.90000
11132,'DONALDS 1   ',  69.0000,1,  11,   1,   1,1.02200651,  -5.692109, 1.10000, 0.90000, 1.10000, 0.90000
11133,'DONALDS 2   ',  69.0000,1,  11,   1,   1,1.02196205,  -5.696493, 1.10000, 0.90000, 1.10000, 0.90000
11134,'EASLEY 1 1  ',  69.0000,1,  11,   1,   1,1.03026402,  -7.079605, 1.10000, 0.90000, 1.10000, 0.90000
11135,'EASLEY 1 2  ',  69.0000,1,  11,   1,   1,1.03043425,  -7.056344, 1.10000, 0.90000, 1.10000, 0.90000
11136,'EASLEY 2 1  ', 138.0000,1,  11,   1,   1,1.02998698,  -2.794184, 1.10000, 0.90000, 1.10000, 0.90000
11137,'EASLEY 2 2  ',  69.0000,1,  11,   1,   1,1.03261280,  -6.686539, 1.10000, 0.90000, 1.10000, 0.90000
11138,'EASLEY 2 3  ',  18.0000,1,  11,   1,   1,1.04240811, -11.450921, 1.10000, 0.90000, 1.10000, 0.90000
11140,'EASLEY 2 5  ', 138.0000,1,  11,   1,   1,1.02985191,  -2.815687, 1.10000, 0.90000, 1.10000, 0.90000
11141,'EASLEY 3 1  ',  69.0000,1,  11,   1,   1,1.02052951,  -8.705305, 1.10000, 0.90000, 1.10000, 0.90000
11142,'EASLEY 4 1  ', 138.0000,1,  11,   1,   1,1.02746522,  -4.095769, 1.10000, 0.90000, 1.10000, 0.90000
11143,'EASLEY 4 2  ',  69.0000,1,  11,   1,   1,1.02629209,  -8.108280, 1.10000, 0.90000, 1.10000, 0.90000
11144,'EASLEY 4 3  ',  13.2000,1,  11,   1,   1,1.03346932, -13.876862, 1.10000, 0.90000, 1.10000, 0.90000
11146,'EASLEY 4 5  ', 138.0000,1,  11,   1,   1,1.02776873,  -4.051708, 1.10000, 0.90000, 1.10000, 0.90000
11147,'EASLEY 4 7  ', 138.0000,1,  11,   1,   1,1.02726209,  -4.119219, 1.10000, 0.90000, 1.10000, 0.90000
11148,'FAIR PLAY 1 ',  69.0000,1,  11,   1,   1,1.00447237,  -7.310517, 1.10000, 0.90000, 1.10000, 0.90000
11149,'FOUNTAIN I~1', 138.0000,1,  11,   1,   1,1.02821350,  -6.326410, 1.10000, 0.90000, 1.10000, 0.90000
11150,'GRAY COURT 1',  69.0000,1,  11,   1,   1,1.00950396, -11.710131, 1.10000, 0.90000, 1.10000, 0.90000
11151,'GREENWOOD ~2', 138.0000,1,  11,   1,   1,1.01984727,  -6.682203, 1.10000, 0.90000, 1.10000, 0.90000
11152,'GREENWOOD ~3',  69.0000,1,  11,   1,   1,1.03193688,  -9.450659, 1.10000, 0.90000, 1.10000, 0.90000
11153,'GREENWOOD ~4', 138.0000,1,  11,   1,   1,1.01968932,  -6.702810, 1.10000, 0.90000, 1.10000, 0.90000
11154,'GREENWOOD ~5',  69.0000,1,  11,   1,   1,1.02416420, -10.529315, 1.10000, 0.90000, 1.10000, 0.90000
11155,'GREENWOOD ~6',  69.0000,1,  11,   1,   1,1.02406716, -10.550343, 1.10000, 0.90000, 1.10000, 0.90000
11156,'GREENWOOD ~7',  69.0000,1,  11,   1,   1,1.02426732, -10.507986, 1.10000, 0.90000, 1.10000, 0.90000
11157,'GREENWOOD ~8',  69.0000,1,  11,   1,   1,1.02416420, -10.529315, 1.10000, 0.90000, 1.10000, 0.90000
11158,'GREENWOOD ~9', 345.0000,1,  11,   1,   1,1.02980268,  -4.810414, 1.10000, 0.90000, 1.10000, 0.90000
11159,'GREENWOOD~10', 138.0000,1,  11,   1,   1,1.03581059,  -6.361338, 1.10000, 0.90000, 1.10000, 0.90000
11160,'GREENWOOD~11',  69.0000,1,  11,   1,   1,1.03860068,  -7.176923, 1.10000, 0.90000, 1.10000, 0.90000
11161,'GREENWOOD~12', 138.0000,1,  11,   1,   1,1.03560412,  -6.385146, 1.10000, 0.90000, 1.10000, 0.90000
11162,'GREENWOOD~13', 138.0000,1,  11,   1,   1,1.02907515,  -7.111271, 1.10000, 0.90000, 1.10000, 0.90000
11163,'GREENWOOD~14',  69.0000,1,  11,   1,   1,1.03395474,  -7.043061, 1.10000, 0.90000, 1.10000, 0.90000
11164,'GREENWOOD~15', 138.0000,1,  11,   1,   1,1.02894795,  -7.130055, 1.10000, 0.90000, 1.10000, 0.90000
11165,'GREER 1 1   ',  69.0000,1,  11,   1,   1,1.02536571, -10.618232, 1.10000, 0.90000, 1.10000, 0.90000
11166,'GREER 1 2   ',  69.0000,1,  11,   1,   1,1.02508581, -10.639884, 1.10000, 0.90000, 1.10000, 0.90000
11167,'GREER 1 4   ',  69.0000,1,  11,   1,   1,1.02566171, -10.594993, 1.10000, 0.90000, 1.10000, 0.90000
11168,'GREER 2 1   ', 138.0000,1,  11,   1,   1,1.02610636,  -7.120440, 1.10000, 0.90000, 1.10000, 0.90000
11169,'GREER 2 2   ',  69.0000,1,  11,   1,   1,1.02717686, -10.248605, 1.10000, 0.90000, 1.10000, 0.90000
11170,'GREER 2 3   ',  20.0000,1,  11,   1,   1,1.02662098,  -9.464808, 1.10000, 0.90000, 1.10000, 0.90000
11172,'GREER 2 5   ', 138.0000,1,  11,   1,   1,1.02585542,  -7.146226, 1.10000, 0.90000, 1.10000, 0.90000
11173,'GREER 3 1   ', 138.0000,1,  11,   1,   1,1.02535677,  -6.632488, 1.10000, 0.90000, 1.10000, 0.90000
11174,'GREER 4 1   ', 345.0000,1,  11,   1,   1,1.02716696,  -4.020876, 1.10000, 0.90000, 1.10000, 0.90000
11175,'GREER 4 2   ', 138.0000,1,  11,   1,   1,1.03396189,  -5.642387, 1.10000, 0.90000, 1.10000, 0.90000
11176,'GREER 4 3   ',  69.0000,1,  11,   1,   1,1.03847146,  -8.520679, 1.10000, 0.90000, 1.10000, 0.90000
11177,'GREER 4 4   ', 345.0000,1,  11,   1,   1,1.02701664,  -4.052268, 1.10000, 0.90000, 1.10000, 0.90000
11178,'GREER 4 6   ', 345.0000,1,  11,   1,   1,1.03133655,  -3.552231, 1.10000, 0.90000, 1.10000, 0.90000
11179,'HODGES 1    ',  69.0000,1,  11,   1,   1,1.03306448,  -7.475646, 1.10000, 0.90000, 1.10000, 0.90000
11180,'HONEA PATH~1', 138.0000,1,  11,   1,   1,1.02930987,  -3.060431, 1.10000, 0.90000, 1.10000, 0.90000
11181,'HONEA PATH~2', 138.0000,1,  11,   1,   1,1.02942693,  -3.041844, 1.10000, 0.90000, 1.10000, 0.90000
11182,'HONEA PATH~3', 138.0000,1,  11,   1,   1,1.02930987,  -3.060431, 1.10000, 0.90000, 1.10000, 0.90000
11183,'IVA 1 1     ',  69.0000,1,  11,   1,   1,1.01820016,  -4.343318, 1.10000, 0.90000, 1.10000, 0.90000
11184,'IVA 1 2     ',  69.0000,1,  11,   1,   1,1.01836598,  -4.333311, 1.10000, 0.90000, 1.10000, 0.90000
11185,'LIBERTY 3 1 ',  69.0000,1,  11,   1,   1,1.00754631,  -6.978561, 1.10000, 0.90000, 1.10000, 0.90000
11186,'LIBERTY 3 2 ',  69.0000,1,  11,   1,   1,1.00735795,  -7.003657, 1.10000, 0.90000, 1.10000, 0.90000
11187,'MARIETTA 3 1',  69.0000,1,  11,   1,   1,1.02802491,  -8.778033, 1.10000, 0.90000, 1.10000, 0.90000
11188,'MARIETTA 3 2',  69.0000,1,  11,   1,   1,1.02787912,  -8.787501, 1.10000, 0.90000, 1.10000, 0.90000
11189,'MAULDIN 1   ',  69.0000,1,  11,   1,   1,1.01416075, -10.359713, 1.10000, 0.90000, 1.10000, 0.90000
11190,'MAULDIN 2   ',  69.0000,1,  11,   1,   1,1.01437616, -10.335523, 1.10000, 0.90000, 1.10000, 0.90000
11191,'NINETY SIX 1', 138.0000,1,  11,   1,   1,1.03092611,  -7.017031, 1.10000, 0.90000, 1.10000, 0.90000
11192,'NINETY SIX 2', 138.0000,1,  11,   1,   1,1.03081763,  -7.029420, 1.10000, 0.90000, 1.10000, 0.90000
11193,'PELZER 1 1  ',  69.0000,1,  11,   1,   1,1.02483702,  -7.340387, 1.10000, 0.90000, 1.10000, 0.90000
11194,'PELZER 1 2  ',  69.0000,1,  11,   1,   1,1.02462828,  -7.358440, 1.10000, 0.90000, 1.10000, 0.90000
11195,'PENDLETON 1 ',  69.0000,1,  11,   1,   1,1.00557876,  -7.283327, 1.10000, 0.90000, 1.10000, 0.90000
11196,'PENDLETON 2 ',  69.0000,1,  11,   1,   1,1.00545490,  -7.297824, 1.10000, 0.90000, 1.10000, 0.90000
11197,'PENDLETON 4 ',  69.0000,1,  11,   1,   1,1.00570416,  -7.270342, 1.10000, 0.90000, 1.10000, 0.90000
11198,'PICKENS 1   ', 138.0000,1,  11,   1,   1,1.03098774,  -0.871248, 1.10000, 0.90000, 1.10000, 0.90000
11199,'PICKENS 2   ',  69.0000,1,  11,   1,   1,1.01266706,  -6.499212, 1.10000, 0.90000, 1.10000, 0.90000
11200,'PICKENS 3   ',  18.0000,1,  11,   1,   1,1.00396442, -14.304054, 1.10000, 0.90000, 1.10000, 0.90000
11202,'PICKENS 5   ', 138.0000,1,  11,   1,   1,1.03076971,  -0.899075, 1.10000, 0.90000, 1.10000, 0.90000
11203,'SENECA 2 1  ', 138.0000,1,  11,   1,   1,1.02629364,  -2.396693, 1.10000, 0.90000, 1.10000, 0.90000
11204,'SENECA 2 2  ', 138.0000,1,  11,   1,   1,1.02612019,  -2.413604, 1.10000, 0.90000, 1.10000, 0.90000
11205,'PIEDMONT 1 1',  69.0000,1,  11,   1,   1,1.02644527,  -8.298821, 1.10000, 0.90000, 1.10000, 0.90000
11206,'PIEDMONT 1 2',  69.0000,1,  11,   1,   1,1.02630377,  -8.317766, 1.10000, 0.90000, 1.10000, 0.90000
11207,'PIEDMONT 2 1',  69.0000,1,  11,   1,   1,1.02788246,  -8.147401, 1.10000, 0.90000, 1.10000, 0.90000
...
0 / END OF BUS DATA, BEGIN LOAD DATA
11005,'1 ',1,  11,   1,    53.219,    12.560,     0.000,     0.000,     0.000,     0.000,   1,1
11008,'1 ',1,  11,   1,     5.894,     1.472,     0.000,     0.000,     0.000,     0.000,   1,1
11009,'1 ',1,  11,   1,     8.780,     1.783,     0.000,     0.000,     0.000,     0.000,   1,1
11009,'2 ',1,  11,   1,     3.507,     0.984,     0.000,     0.000,     0.000,     0.000,   1,1
11012,'1 ',1,  11,   1,    41.515,     5.163,     0.000,     0.000,     0.000,     0.000,   1,1
11018,'1 ',1,  11,   1,    40.366,    10.870,     0.000,     0.000,     0.000,     0.000,   1,1
11018,'2 ',1,  11,   1,     0.247,     0.021,     0.000,     0.000,     0.000,     0.000,   1,1
11020,'1 ',1,  11,   1,    43.085,    31.769,     0.000,     0.000,     0.000,     0.000,   1,1
11022,'1 ',1,  11,   1,    32.575,    13.351,     0.000,     0.000,     0.000,     0.000,   1,1
11023,'1 ',1,  11,   1,    32.575,    11.047,     0.000,     0.000,     0.000,     0.000,   1,1
11026,'1 ',1,  11,   1,    41.239,     6.498,     0.000,     0.000,     0.000,     0.000,   1,1
11026,'2 ',1,  11,   1,     1.378,     0.300,     0.000,     0.000,     0.000,     0.000,   1,1
11029,'1 ',1,  11,   1,    50.014,     8.356,     0.000,     0.000,     0.000,     0.000,   1,1
11031,'1 ',1,  11,   1,    57.931,     8.417,     0.000,     0.000,     0.000,     0.000,   1,1
11031,'2 ',1,  11,   1,     0.798,     0.133,     0.000,     0.000,     0.000,     0.000,   1,1
11036,'1 ',1,  11,   1,    22.831,     4.497,     0.000,     0.000,     0.000,     0.000,   1,1
11038,'1 ',1,  11,   1,    37.560,    16.053,     0.000,     0.000,     0.000,     0.000,   1,1
11039,'1 ',1,  11,   1,    48.464,     5.174,     0.000,     0.000,     0.000,     0.000,   1,1
11040,'1 ',1,  11,   1,    23.049,     5.369,     0.000,     0.000,     0.000,     0.000,   1,1
11042,'1 ',1,  11,   1,    29.461,     2.648,     0.000,     0.000,     0.000,     0.000,   1,1
11043,'1 ',1,  11,   1,     0.369,     0.076,     0.000,     0.000,     0.000,     0.000,   1,1
11045,'1 ',1,  11,   1,    14.700,     3.136,     0.000,     0.000,     0.000,     0.000,   1,1
11048,'1 ',1,  11,   1,    58.776,    13.098,     0.000,     0.000,     0.000,     0.000,   1,1
11051,'1 ',1,  11,   1,    50.258,    13.622,     0.000,     0.000,     0.000,     0.000,   1,1
11052,'1 ',1,  11,   1,    39.168,     5.661,     0.000,     0.000,     0.000,     0.000,   1,1
11052,'2 ',1,  11,   1,     0.221,     0.051,     0.000,     0.000,     0.000,     0.000,   1,1
11055,'1 ',1,  11,   1,    39.168,    19.429,     0.000,     0.000,     0.000,     0.000,   1,1
11056,'1 ',1,  11,   1,    10.852,     1.443,     0.000,     0.000,     0.000,     0.000,   1,1
11058,'1 ',1,  11,   1,    20.992,     2.309,     0.000,     0.000,     0.000,     0.000,   1,1
11064,'1 ',1,  11,   1,    54.540,    14.885,     0.000,     0.000,     0.000,     0.000,   1,1
11067,'1 ',1,  11,   1,    26.380,    11.126,     0.000,     0.000,     0.000,     0.000,   1,1
11068,'1 ',1,  11,   1,    33.914,    10.097,     0.000,     0.000,     0.000,     0.000,   1,1
11071,'1 ',1,  11,   1,    11.718,     3.732,     0.000,     0.000,     0.000,     0.000,   1,1
11072,'1 ',1,  11,   1,    17.963,     1.609,     0.000,     0.000,     0.000,     0.000,   1,1
11075,'1 ',1,  11,   1,    49.884,    19.774,     0.000,     0.000,     0.000,     0.000,   1,1
11075,'2 ',1,  11,   1,     6.750,     0.570,     0.000,     0.000,     0.000,     0.000,   1,1
11077,'1 ',1,  11,   1,    18.775,     2.835,     0.000,     0.000,     0.000,     0.000,   1,1
11080,'1 ',1,  11,   1,    37.622,    10.567,     0.000,     0.000,     0.000,     0.000,   1,1
11080,'2 ',1,  11,   1,     9.188,     2.029,     0.000,     0.000,     0.000,     0.000,   1,1
11083,'1 ',1,  11,   1,    27.430,     4.416,     0.000,     0.000,     0.000,     0.000,   1,1
11084,'1 ',1,  11,   1,    44.738,    17.525,     0.000,     0.000,     0.000,     0.000,   1,1
11086,'1 ',1,  11,   1,    44.738,    17.314,     0.000,     0.000,     0.000,     0.000,   1,1
11090,'1 ',1,  11,   1,    44.833,    11.683,     0.000,     0.000,     0.000,     0.000,   1,1
11094,'1 ',1,  11,   1,    44.833,    27.569,     0.000,     0.000,     0.000,     0.000,   1,1
11094,'2 ',1,  11,   1,     7.072,     0.282,     0.000,     0.000,     0.000,     0.000,   1,1
11095,'1 ',1,  11,   1,    36.039,     7.741,     0.000,     0.000,     0.000,     0.000,   1,1
11096,'1 ',1,  11,   1,    36.039,     2.697,     0.000,     0.000,     0.000,     0.000,   1,1
11097,'1 ',1,  11,   1,    37.439,    21.431,     0.000,     0.000,     0.000,     0.000,   1,1
11099,'1 ',1,  11,   1,    37.439,    14.451,     0.000,     0.000,     0.000,     0.000,   1,1
11100,'1 ',1,  11,   1,    45.696,    13.490,     0.000,     0.000,     0.000,     0.000,   1,1
11102,'1 ',1,  11,   1,    45.696,    10.138,     0.000,     0.000,     0.000,     0.000,   1,1
11105,'1 ',1,  11,   1,    33.391,     7.728,     0.000,     0.000,     0.000,     0.000,   1,1
11107,'1 ',1,  11,   1,     6.068,     1.256,     0.000,     0.000,     0.000,     0.000,   1,1
11108,'1 ',1,  11,   1,    33.391,    11.397,     0.000,     0.000,     0.000,     0.000,   1,1
11109,'1 ',1,  11,   1,    33.628,     5.136,     0.000,     0.000,     0.000,     0.000,   1,1
11111,'1 ',1,  11,   1,    50.831,    18.095,     0.000,     0.000,     0.000,     0.000,   1,1
11115,'1 ',1,  11,   1,    50.831,     4.525,     0.000,     0.000,     0.000,     0.000,   1,1
11117,'1 ',1,  11,   1,    37.986,    16.304,     0.000,     0.000,     0.000,     0.000,   1,1
11119,'1 ',1,  11,   1,    35.799,    26.531,     0.000,     0.000,     0.000,     0.000,   1,1
11119,'2 ',1,  11,   1,    10.111,     3.800,     0.000,     0.000,     0.000,     0.000,   1,1
11120,'1 ',1,  11,   1,    35.799,    10.434,     0.000,     0.000,     0.000,     0.000,   1,1
11122,'1 ',1,  11,   1,    32.146,     4.574,     0.000,     0.000,     0.000,     0.000,   1,1
11125,'1 ',1,  11,   1,    47.754,     8.660,     0.000,     0.000,     0.000,     0.000,   1,1
11127,'1 ',1,  11,   1,     7.173,     1.685,     0.000,     0.000,     0.000,     0.000,   1,1
11127,'2 ',1,  11,   1,     0.653,     0.350,     0.000,     0.000,     0.000,     0.000,   1,1
11128,'1 ',1,  11,   1,    36.884,    13.669,     0.000,     0.000,     0.000,     0.000,   1,1
11128,'2 ',1,  11,   1,     0.330,     0.052,     0.000,     0.000,     0.000,     0.000,   1,1
11129,'1 ',1,  11,   1,    34.627,    12.386,     0.000,     0.000,     0.000,     0.000,   1,1
11131,'1 ',1,  11,   1,    14.531,     3.049,     0.000,     0.000,     0.000,     0.000,   1,1
11133,'1 ',1,  11,   1,     7.654,     2.251,     0.000,     0.000,     0.000,     0.000,   1,1
11134,'1 ',1,  11,   1,    39.746,     5.632,     0.000,     0.000,     0.000,     0.000,   1,1
11140,'1 ',1,  11,   1,    39.746,     4.825,     0.000,     0.000,     0.000,     0.000,   1,1
11141,'1 ',1,  11,   1,    38.429,    17.874,     0.000,     0.000,     0.000,     0.000,   1,1
11147,'1 ',1,  11,   1,    38.429,     9.551,     0.000,     0.000,     0.000,     0.000,   1,1
11148,'1 ',1,  11,   1,     7.166,     1.143,     0.000,     0.000,     0.000,     0.000,   1,1
11149,'1 ',1,  11,   1,    48.303,     7.992,     0.000,     0.000,     0.000,     0.000,   1,1
11150,'1 ',1,  11,   1,    25.953,     6.144,     0.000,     0.000,     0.000,     0.000,   1,1
11152,'1 ',1,  11,   1,     3.234,     1.046,     0.000,     0.000,     0.000,     0.000,   1,1
11153,'1 ',1,  11,   1,    36.607,     5.934,     0.000,     0.000,     0.000,     0.000,   1,1
11155,'1 ',1,  11,   1,    36.607,     0.872,     0.000,     0.000,     0.000,     0.000,   1,1
11161,'1 ',1,  11,   1,    34.106,     6.751,     0.000,     0.000,     0.000,     0.000,   1,1
11161,'2 ',1,  11,   1,    10.257,     4.740,     0.000,     0.000,     0.000,     0.000,   1,1
11163,'1 ',1,  11,   1,     6.331,     0.738,     0.000,     0.000,     0.000,     0.000,   1,1
11164,'1 ',1,  11,   1,    34.106,     5.355,     0.000,     0.000,     0.000,     0.000,   1,1
11166,'1 ',1,  11,   1,    42.422,    16.758,     0.000,     0.000,     0.000,     0.000,   1,1
11172,'1 ',1,  11,   1,    42.422,    13.928,     0.000,     0.000,     0.000,     0.000,   1,1
11173,'1 ',1,  11,   1,    55.697,    38.612,     0.000,     0.000,     0.000,     0.000,   1,1
11177,'1 ',1,  11,   1,    55.697,     1.717,     0.000,     0.000,     0.000,     0.000,   1,1
11179,'1 ',1,  11,   1,    12.509,     3.132,     0.000,     0.000,     0.000,     0.000,   1,1
11180,'1 ',1,  11,   1,    25.836,     2.813,     0.000,     0.000,     0.000,     0.000,   1,1
11180,'2 ',1,  11,   1,     4.529,     1.561,     0.000,     0.000,     0.000,     0.000,   1,1
11183,'1 ',1,  11,   1,    20.270,    10.618,     0.000,     0.000,     0.000,     0.000,   1,1
11183,'2 ',1,  11,   1,     0.307,     0.061,     0.000,     0.000,     0.000,     0.000,   1,1
11186,'1 ',1,  11,   1,    39.302,     8.597,     0.000,     0.000,     0.000,     0.000,   1,1
11186,'2 ',1,  11,   1,     0.699,     0.267,     0.000,     0.000,     0.000,     0.000,   1,1
11188,'1 ',1,  11,   1,    18.702,     9.538,     0.000,     0.000,     0.000,     0.000,   1,1
11189,'1 ',1,  11,   1,    39.234,     9.151,     0.000,     0.000,     0.000,     0.000,   1,1
11192,'1 ',1,  11,   1,    21.453,     4.710,     0.000,     0.000,     0.000,     0.000,   1,1
11194,'1 ',1,  11,   1,    32.206,    11.626,     0.000,     0.000,     0.000,     0.000,   1,1
11196,'1 ',1,  11,   1,    22.550,     5.680,     0.000,     0.000,     0.000,     0.000,   1,1
11202,'1 ',1,  11,   1,    46.878,     9.414,     0.000,     0.000,     0.000,     0.000,   1,1
11204,'1 ',1,  11,   1,    30.857,     7.967,     0.000,     0.000,     0.000,     0.000,   1,1
11206,'1 ',1,  11,   1,    32.952,     5.369,     0.000,     0.000,     0.000,     0.000,   1,1
11208,'1 ',1,  11,   1,    32.952,     5.228,     0.000,     0.000,     0.000,     0.000,   1,1
11209,'1 ',1,  11,   1,    20.894,     3.286,     0.000,     0.000,     0.000,     0.000,   1,1
11210,'1 ',1,  11,   1,    56.358,    11.177,     0.000,     0.000,     0.000,     0.000,   1,1
11212,'1 ',1,  11,   1,    35.471,    13.969,     0.000,     0.000,     0.000,     0.000,   1,1
11215,'1 ',1,  11,   1,    35.471,    19.189,     0.000,     0.000,     0.000,     0.000,   1,1
11217,'1 ',1,  11,   1,    61.073,    13.994,     0.000,     0.000,     0.000,     0.000,   1,1
11217,'2 ',1,  11,   1,     1.979,     0.419,     0.000,     0.000,     0.000,     0.000,   1,1
11220,'1 ',1,  11,   1,    61.073,    14.219,     0.000,     0.000,     0.000,     0.000,   1,1
11221,'1 ',1,  11,   1,     9.927,     2.468,     0.000,     0.000,     0.000,     0.000,   1,1
11223,'1 ',1,  11,   1,    12.641,     1.454,     0.000,     0.000,     0.000,     0.000,   1,1
11225,'1 ',1,  11,   1,    51.429,    45.143,     0.000,     0.000,     0.000,     0.000,   1,1
11226,'1 ',1,  11,   1,    51.429,     8.393,     0.000,     0.000,     0.000,     0.000,   1,1
11231,'1 ',1,  11,   1,    54.376,    10.829,     0.000,     0.000,     0.000,     0.000,   1,1
11233,'1 ',1,  11,   1,    29.466,    10.203,     0.000,     0.000,     0.000,     0.000,   1,1
11233,'2 ',1,  11,   1,     0.866,     0.445,     0.000,     0.000,     0.000,     0.000,   1,1
11234,'1 ',1,  11,   1,    12.626,     3.115,     0.000,     0.000,     0.000,     0.000,   1,1
11236,'1 ',1,  11,   1,    36.959,     3.339,     0.000,     0.000,     0.000,     0.000,   1,1
11238,'1 ',1,  11,   1,    10.725,     0.499,     0.000,     0.000,     0.000,     0.000,   1,1
11239,'1 ',1,  11,   1,    31.738,     5.311,     0.000,     0.000,     0.000,     0.000,   1,1
11243,'1 ',1,  11,   1,    26.153,     6.519,     0.000,     0.000,     0.000,     0.000,   1,1
11245,'1 ',1,  11,   1,     9.675,     2.977,     0.000,     0.000,     0.000,     0.000,   1,1
11247,'1 ',1,  11,   1,    51.602,     5.583,     0.000,     0.000,     0.000,     0.000,   1,1
11247,'2 ',1,  11,   1,     6.396,     0.554,     0.000,     0.000,     0.000,     0.000,   1,1
11249,'1 ',1,  11,   1,     4.553,     1.078,     0.000,     0.000,     0.000,     0.000,   1,1
11250,'1 ',1,  11,   1,    46.129,    14.175,     0.000,     0.000,     0.000,     0.000,   1,1
11252,'1 ',1,  11,   1,    32.546,    10.565,     0.000,     0.000,     0.000,     0.000,   1,1
11255,'1 ',1,  11,   1,    32.546,     1.932,     0.000,     0.000,     0.000,     0.000,   1,1
11258,'1 ',1,  11,   1,    38.284,    17.734,     0.000,     0.000,     0.000,     0.000,   1,1
11262,'1 ',1,  11,   1,    38.284,     8.475,     0.000,     0.000,     0.000,     0.000,   1,1
11263,'1 ',1,  11,   1,    19.539,     2.891,     0.000,     0.000,     0.000,     0.000,   1,1
11266,'1 ',1,  11,   1,    64.540,    25.077,     0.000,     0.000,     0.000,     0.000,   1,1
11269,'1 ',1,  11,   1,    59.853,    19.004,     0.000,     0.000,     0.000,     0.000,   1,1
11271,'1 ',1,  11,   1,    68.075,    17.151,     0.000,     0.000,     0.000,     0.000,   1,1
11271,'2 ',1,  11,   1,     0.112,     0.047,     0.000,     0.000,     0.000,     0.000,   1,1
11276,'1 ',1,  11,   1,    68.075,    12.869,     0.000,     0.000,     0.000,     0.000,   1,1
11281,'1 ',1,  11,   1,    69.915,    43.247,     0.000,     0.000,     0.000,     0.000,   1,1
11284,'1 ',1,  11,   1,    69.915,    29.117,     0.000,     0.000,     0.000,     0.000,   1,1
11285,'1 ',1,  11,   1,    37.595,     8.132,     0.000,     0.000,     0.000,     0.000,   1,1
11288,'1 ',1,  11,   1,    37.595,     8.043,     0.000,     0.000,     0.000,     0.000,   1,1
11288,'2 ',1,  11,   1,     4.550,     0.535,     0.000,     0.000,     0.000,     0.000,   1,1
11291,'1 ',1,  11,   1,    23.902,     3.886,     0.000,     0.000,     0.000,     0.000,   1,1
11333,'1 ',1,  11,   1,     2.785,     0.991,     0.000,     0.000,     0.000,     0.000,   1,1
11376,'1 ',1,  11,   1,     3.198,     1.312,     0.000,     0.000,     0.000,     0.000,   1,1
13001,'1 ',1,  13,   1,    37.501,    11.041,     0.000,     0.000,     0.000,     0.000,   1,1
13004,'1 ',1,  13,   1,    72.486,     7.794,     0.000,     0.000,     0.000,     0.000,   1,1
13005,'1 ',1,  13,   1,    72.486,    20.684,     0.000,     0.000,     0.000,     0.000,   1,1
13007,'1 ',1,  13,   1,    54.409,    25.250,     0.000,     0.000,     0.000,     0.000,   1,1
13010,'1 ',1,  13,   1,    54.409,    18.050,     0.000,     0.000,     0.000,     0.000,   1,1
13011,'1 ',1,  13,   1,    35.119,    12.689,     0.000,     0.000,     0.000,     0.000,   1,1
13012,'1 ',1,  13,   1,    57.068,    38.255,     0.000,     0.000,     0.000,     0.000,   1,1
13014,'1 ',1,  13,   1,    52.541,    19.408,     0.000,     0.000,     0.000,     0.000,   1,1
13015,'1 ',1,  13,   1,    28.545,    16.509,     0.000,     0.000,     0.000,     0.000,   1,1
13018,'1 ',1,  13,   1,    54.266,     8.281,     0.000,     0.000,     0.000,     0.000,   1,1
13020,'1 ',1,  13,   1,    45.667,    15.196,     0.000,     0.000,     0.000,     0.000,   1,1
13022,'1 ',1,  13,   1,    26.917,    12.012,     0.000,     0.000,     0.000,     0.000,   1,1
13024,'1 ',1,  13,   1,    31.109,     2.555,     0.000,     0.000,     0.000,     0.000,   1,1
13025,'1 ',1,  13,   1,    31.109,    10.443,     0.000,     0.000,     0.000,     0.000,   1,1
13027,'1 ',1,  13,   1,    52.038,    14.700,     0.000,     0.000,     0.000,     0.000,   1,1
13028,'1 ',1,  13,   1,    41.337,     7.156,     0.000,     0.000,     0.000,     0.000,   1,1
13029,'1 ',1,  13,   1,    41.337,    25.511,     0.000,     0.000,     0.000,     0.000,   1,1
13032,'1 ',1,  13,   1,    32.570,     3.683,     0.000,     0.000,     0.000,     0.000,   1,1
13034,'1 ',1,  13,   1,    32.570,     2.829,     0.000,     0.000,     0.000,     0.000,   1,1
13036,'1 ',1,  13,   1,    26.480,     1.315,     0.000,     0.000,     0.000,     0.000,   1,1
13038,'1 ',1,  13,   1,    31.820,    10.598,     0.000,     0.000,     0.000,     0.000,   1,1
13040,'1 ',1,  13,   1,    16.831,     5.697,     0.000,     0.000,     0.000,     0.000,   1,1
13042,'1 ',1,  13,   1,    40.656,    20.319,     0.000,     0.000,     0.000,     0.000,   1,1
13044,'1 ',1,  13,   1,    40.656,    26.375,     0.000,     0.000,     0.000,     0.000,   1,1
13045,'1 ',1,  13,   1,    35.138,     7.631,     0.000,     0.000,     0.000,     0.000,   1,1
13046,'1 ',1,  13,   1,    35.138,    31.871,     0.000,     0.000,     0.000,     0.000,   1,1
13049,'1 ',1,  13,   1,    17.521,     6.809,     0.000,     0.000,     0.000,     0.000,   1,1
13049,'2 ',1,  13,   1,     4.809,     1.000,     0.000,     0.000,     0.000,     0.000,   1,1
13052,'1 ',1,  13,   1,    36.860,    10.052,     0.000,     0.000,     0.000,     0.000,   1,1
13053,'1 ',1,  13,   1,    57.506,     8.133,     0.000,     0.000,     0.000,     0.000,   1,1
13056,'1 ',1,  13,   1,    57.506,    12.932,     0.000,     0.000,     0.000,     0.000,   1,1
13057,'1 ',1,  13,   1,    35.402,     2.697,     0.000,     0.000,     0.000,     0.000,   1,1
13058,'1 ',1,  13,   1,    46.787,     6.813,     0.000,     0.000,     0.000,     0.000,   1,1
13060,'1 ',1,  13,   1,    46.787,     6.512,     0.000,     0.000,     0.000,     0.000,   1,1
13062,'1 ',1,  13,   1,    18.202,     4.171,     0.000,     0.000,     0.000,     0.000,   1,1
13063,'1 ',1,  13,   1,    21.528,     3.674,     0.000,     0.000,     0.000,     0.000,   1,1
13064,'1 ',1,  13,   1,    24.396,     2.836,     0.000,     0.000,     0.000,     0.000,   1,1
13066,'1 ',1,  13,   1,    48.265,    16.154,     0.000,     0.000,     0.000,     0.000,   1,1
13070,'1 ',1,  13,   1,    48.265,     3.718,     0.000,     0.000,     0.000,     0.000,   1,1
13072,'1 ',1,  13,   1,    33.762,    10.533,     0.000,     0.000,     0.000,     0.000,   1,1
13075,'1 ',1,  13,   1,    33.762,     7.637,     0.000,     0.000,     0.000,     0.000,   1,1
13080,'1 ',1,  13,   1,    54.915,     6.765,     0.000,     0.000,     0.000,     0.000,   1,1
13082,'1 ',1,  13,   1,    29.439,     2.763,     0.000,     0.000,     0.000,     0.000,   1,1
13083,'1 ',1,  13,   1,    29.439,     5.224,     0.000,     0.000,     0.000,     0.000,   1,1
13086,'1 ',1,  13,   1,    27.917,     8.966,     0.000,     0.000,     0.000,     0.000,   1,1
13088,'1 ',1,  13,   1,    31.243,    17.620,     0.000,     0.000,     0.000,     0.000,   1,1
13089,'1 ',1,  13,   1,    23.292,     2.467,     0.000,     0.000,     0.000,     0.000,   1,1
13090,'1 ',1,  13,   1,     9.646,     0.835,     0.000,     0.000,     0.000,     0.000,   1,1
13090,'2 ',1,  13,   1,     2.148,     0.571,     0.000,     0.000,     0.000,     0.000,   1,1
13091,'1 ',1,  13,   1,    69.889,    17.719,     0.000,     0.000,     0.000,     0.000,   1,1
13097,'1 ',1,  13,   1,    69.889,    20.736,     0.000,     0.000,     0.000,     0.000,   1,1
13099,'1 ',1,  13,   1,    34.585,    12.732,     0.000,     0.000,     0.000,     0.000,   1,1
13101,'1 ',1,  13,   1,    53.109,    18.925,     0.000,     0.000,     0.000,     0.000,   1,1
13103,'1 ',1,  13,   1,    53.109,     8.804,     0.000,     0.000,     0.000,     0.000,   1,1
...
0 / END OF LOAD DATA, BEGIN FIXED SHUNT DATA
0 / END OF FIXED SHUNT DATA, BEGIN GENERATOR DATA
11294,'1 ',     1.599,     0.814,     0.814,    -0.178,1.03038,11293,     1.920,   0.00000,   0.17440,   0.00000,   0.00000,1.00000,1,  100.0,     1.600,     0.604,   1,1.0000,   0,1.0000,   0,1.0000,   0,1.0000,0, 1.0000
11297,'1 ',     2.900,     0.000,     1.351,    -0.354,1.04000,    0,     3.480,   0.00000,   0.14830,   0.00000,   0.00000,1.00000,0,  100.0,     2.900,     1.251,   1,1.0000,   0,1.0000,   0,1.0000,   0,1.0000,0, 1.0000
11299,'1 ',     1.024,     0.522,     0.522,    -0.114,1.04000,    0,     1.230,   0.00000,   0.12630,   0.00000,   0.00000,1.00000,1,  100.0,     1.025,     0.194,   1,1.0000,   0,1.0000,   0,1.0000,   0,1.0000,0, 1.0000
11299,'2 ',     1.024,     0.522,     0.522,    -0.114,1.04000,    0,     1.230,   0.00000,   0.12630,   0.00000,   0.00000,1.00000,1,  100.0,     1.025,     0.178,   1,1.0000,   0,1.0000,   0,1.0000,   0,1.0000,0, 1.0000
11299,'3 ',     1.024,     0.522,     0.522,    -0.114,1.04000,    0,     1.230,   0.00000,   0.12630,   0.00000,   0.00000,1.00000,1,  100.0,     1.025,     0.304,   1,1.0000,   0,1.0000,   0,1.0000,   0,1.0000,0, 1.0000
11299,'4 ',     1.024,     0.522,     0.522,    -0.114,1.04000,    0,     1.230,   0.00000,   0.12630,   0.00000,   0.00000,1.00000,1,  100.0,     1.025,     0.413,   1,1.0000,   0,1.0000,   0,1.0000,   0,1.0000,0, 1.0000
11299,'5 ',     1.099,     0.560,     0.560,    -0.122,1.04000,    0,     1.320,   0.00000,   0.14300,   0.00000,   0.00000,1.00000,1,  100.0,     1.100,     0.543,   1,1.0000,   0,1.0000,   0,1.0000,   0,1.0000,0, 1.0000
11299,'6 ',     1.099,     0.560,     0.560,    -0.122,1.04000,    0,     1.320,   0.00000,   0.14300,   0.00000,   0.00000,1.00000,1,  100.0,     1.100,     0.291,   1,1.0000,   0,1.0000,   0,1.0000,   0,1.0000,0, 1.0000
11299,'7 ',     1.099,     0.560,     0.560,    -0.122,1.04000,    0,     1.320,   0.00000,   0.14300,   0.00000,   0.00000,1.00000,1,  100.0,     1.100,     0.301,   1,1.0000,   0,1.0000,   0,1.0000,   0,1.0000,0, 1.0000
11302,'1 ',     1.112,     0.000,     0.499,    -0.064,1.03600,11301,     1.560,   0.00000,   0.21010,   0.00000,   0.00000,1.00000,0,  100.0,     1.300,     0.580,   1,1.0000,   0,1.0000,   0,1.0000,   0,1.0000,0, 1.0000
11303,'1 ',     1.299,    -0.064,     0.499,    -0.064,1.02222,11301,     1.560,   0.00000,   0.21010,   0.00000,   0.00000,1.00000,1,  100.0,     1.300,     0.421,   1,1.0000,   0,1.0000,   0,1.0000,   0,1.0000,0, 1.0000
11303,'2 ',     1.299,    -0.064,     0.499,    -0.064,1.02222,11301,     1.560,   0.00000,   0.21010,   0.00000,   0.00000,1.00000,1,  100.0,     1.300,     0.232,   1,1.0000,   0,1.0000,   0,1.0000,   0,1.0000,0, 1.0000
11304,'1 ',     1.299,    -0.064,     0.499,    -0.064,1.02222,11301,     1.560,   0.00000,   0.21010,   0.00000,   0.00000,1.00000,1,  100.0,     1.300,     0.419,   1,1.0000,   0,1.0000,   0,1.0000,   0,1.0000,0, 1.0000
11309,'1 ',     0.583,     0.000,     0.839,    -0.220,1.01400,11308,     2.160,   0.00000,   0.22440,   0.00000,   0.00000,1.00000,0,  100.0,     1.800,     0.583,   1,1.0000,   0,1.0000,   0,1.0000,   0,1.0000,0, 1.0000
11309,'2 ',     1.800,     0.000,     0.839,    -0.220,1.01400,11308,     2.160,   0.00000,   0.22440,   0.00000,   0.00000,1.00000,0,  100.0,     1.800,     0.559,   1,1.0000,   0,1.0000,   0,1.0000,   0,1.0000,0, 1.0000
11310,'1 ',     0.654,     0.000,     0.839,    -0.220,1.01400,11308,     2.160,   0.00000,   0.22440,   0.00000,   0.00000,1.00000,0,  100.0,     1.800,     0.654,   1,1.0000,   0,1.0000,   0,1.0000,   0,1.0000,0, 1.0000
11311,'1 ',     1.800,     0.000,     0.839,    -0.220,1.01400,11308,     2.160,   0.00000,   0.22440,   0.00000,   0.00000,1.00000,0,  100.0,     1.800,     0.584,   1,1.0000,   0,1.0000,   0,1.0000,   0,1.0000,0, 1.0000
11315,'1 ',    50.564,    25.755,    25.755,    -5.617,1.06169,11313,    60.720,   0.00000,   0.20140,   0.00000,   0.00000,1.00000,1,  100.0,    50.600,    16.869,   1,1.0000,   0,1.0000,   0,1.0000,   0,1.0000,0, 1.0000
11316,'1 ',    50.564,    25.755,    25.755,    -5.617,1.06169,11313,    60.720,   0.00000,   0.20140,   0.00000,   0.00000,1.00000,1,  100.0,    50.600,    20.093,   1,1.0000,   0,1.0000,   0,1.0000,   0,1.0000,0, 1.0000
11320,'1 ',     3.597,     1.358,     1.382,    -0.176,1.03500,11319,     4.320,   0.00000,   0.26950,   0.00000,   0.00000,1.00000,1,  100.0,     3.600,     1.644,   1,1.0000,   0,1.0000,   0,1.0000,   0,1.0000,0, 1.0000
11320,'2 ',     3.597,     1.358,     1.382,    -0.176,1.03500,11319,     4.320,   0.00000,   0.26950,   0.00000,   0.00000,1.00000,1,  100.0,     3.600,     1.378,   1,1.0000,   0,1.0000,   0,1.0000,   0,1.0000,0, 1.0000
11321,'1 ',     3.597,     1.382,     1.382,    -0.176,1.03500,11319,     4.320,   0.00000,   0.26950,   0.00000,   0.00000,1.00000,1,  100.0,     3.600,     1.613,   1,1.0000,   0,1.0000,   0,1.0000,   0,1.0000,0, 1.0000
11321,'2 ',     2.898,     0.000,     1.382,    -0.176,1.03500,11319,     4.320,   0.00000,   0.26950,   0.00000,   0.00000,1.00000,0,  100.0,     3.600,     1.077,   1,1.0000,   0,1.0000,   0,1.0000,   0,1.0000,0, 1.0000
11322,'1 ',     3.597,     1.382,     1.382,    -0.176,1.03500,11319,     4.320,   0.00000,   0.26950,   0.00000,   0.00000,1.00000,1,  100.0,     3.600,     1.630,   1,1.0000,   0,1.0000,   0,1.0000,   0,1.0000,0, 1.0000
11325,'1 ',     5.496,     2.799,     2.799,    -0.611,1.04436,11324,     6.600,   0.00000,   0.10500,   0.00000,   0.00000,1.00000,1,  100.0,     5.500,     2.487,   1,1.0000,   0,1.0000,   0,1.0000,   0,1.0000,0, 1.0000
11326,'1 ',     5.496,     2.799,     2.799,    -0.611,1.04436,11324,     6.600,   0.00000,   0.10500,   0.00000,   0.00000,1.00000,1,  100.0,     5.500,     1.414,   1,1.0000,   0,1.0000,   0,1.0000,   0,1.0000,0, 1.0000
11330,'1 ',     2.000,     0.000,     0.768,    -0.098,1.04000,11329,     2.400,   0.00000,   0.33830,   0.00000,   0.00000,1.00000,0,  100.0,     2.000,     0.220,   1,1.0000,   0,1.0000,   0,1.0000,   0,1.0000,0, 1.0000
11332,'1 ',     1.800,     0.000,     0.839,    -0.220,1.04000,    0,     2.160,   0.00000,   0.12780,   0.00000,   0.00000,1.00000,0,  100.0,     1.800,     0.407,   1,1.0000,   0,1.0000,   0,1.0000,   0,1.0000,0, 1.0000
11332,'2 ',     0.287,     0.000,     0.839,    -0.220,1.04000,    0,     2.160,   0.00000,   0.12780,   0.00000,   0.00000,1.00000,0,  100.0,     1.800,     0.287,   1,1.0000,   0,1.0000,   0,1.0000,   0,1.0000,0, 1.0000
11332,'3 ',     0.193,     0.000,     0.839,    -0.220,1.04000,    0,     2.160,   0.00000,   0.12780,   0.00000,   0.00000,1.00000,0,  100.0,     1.800,     0.193,   1,1.0000,   0,1.0000,   0,1.0000,   0,1.0000,0, 1.0000
11333,'1 ',     4.297,    -0.211,     1.651,    -0.211,1.04500,    0,     5.160,   0.00000,   0.15330,   0.00000,   0.00000,1.00000,1,  100.0,     4.300,     2.011,   1,1.0000,   0,1.0000,   0,1.0000,   0,1.0000,0, 1.0000
11334,'1 ',     1.444,     1.351,     1.351,    -0.354,1.03900,    0,     3.480,   0.00000,   0.12500,   0.00000,   0.00000,1.00000,1,  100.0,     2.900,     1.433,   1,1.0000,   0,1.0000,   0,1.0000,   0,1.0000,0, 1.0000
11334,'2 ',     2.900,     0.000,     1.351,    -0.354,1.03900,    0,     3.480,   0.00000,   0.12500,   0.00000,   0.00000,1.00000,0,  100.0,     2.900,     1.195,   1,1.0000,   0,1.0000,   0,1.0000,   0,1.0000,0, 1.0000
11336,'1 ',     1.099,     0.422,     0.422,    -0.054,1.02680,11335,     1.320,   0.00000,   0.22300,   0.00000,   0.00000,1.00000,1,  100.0,     1.100,     0.381,   1,1.0000,   0,1.0000,   0,1.0000,   0,1.0000,0, 1.0000
11339,'1 ',    14.989,    -0.735,     5.760,    -0.735,1.04840,11338,    18.000,   0.00000,   0.14700,   0.00000,   0.00000,1.00000,1,  100.0,    15.000,     3.877,   1,1.0000,   0,1.0000,   0,1.0000,   0,1.0000,0, 1.0000
11340,'1 ',    14.989,    -0.735,     5.760,    -0.735,1.04840,11338,    18.000,   0.00000,   0.14700,   0.00000,   0.00000,1.00000,1,  100.0,    15.000,     2.941,   1,1.0000,   0,1.0000,   0,1.0000,   0,1.0000,0, 1.0000
11340,'2 ',    14.989,    -0.735,     5.760,    -0.735,1.04840,11338,    18.000,   0.00000,   0.14700,   0.00000,   0.00000,1.00000,1,  100.0,    15.000,     2.834,   1,1.0000,   0,1.0000,   0,1.0000,   0,1.0000,0, 1.0000
11341,'1 ',    11.684,     0.000,     5.760,    -0.735,1.05100,11338,    18.000,   0.00000,   0.14700,   0.00000,   0.00000,1.00000,0,  100.0,    15.000,     6.362,   1,1.0000,   0,1.0000,   0,1.0000,   0,1.0000,0, 1.0000
11348,'1 ',     0.999,     0.384,     0.384,    -0.049,1.03800,11344,     1.200,   0.00000,   0.27640,   0.00000,   0.00000,1.00000,1,  100.0,     1.000,     0.349,   1,1.0000,   0,1.0000,   0,1.0000,   0,1.0000,0, 1.0000
11355,'1 ',     0.600,     0.230,     0.230,    -0.029,1.04983,11351,     0.720,   0.00000,   0.21390,   0.00000,   0.00000,1.00000,1,  100.0,     0.600,     0.195,   1,1.0000,   0,1.0000,   0,1.0000,   0,1.0000,0, 1.0000
11356,'1 ',     0.600,     0.230,     0.230,    -0.029,1.04983,11351,     0.720,   0.00000,   0.21390,   0.00000,   0.00000,1.00000,1,  100.0,     0.600,     0.190,   1,1.0000,   0,1.0000,   0,1.0000,   0,1.0000,0, 1.0000
11356,'2 ',     0.600,     0.230,     0.230,    -0.029,1.04983,11351,     0.720,   0.00000,   0.21390,   0.00000,   0.00000,1.00000,1,  100.0,     0.600,     0.217,   1,1.0000,   0,1.0000,   0,1.0000,   0,1.0000,0, 1.0000
11357,'1 ',     0.600,     0.230,     0.230,    -0.029,1.04983,11351,     0.720,   0.00000,   0.21390,   0.00000,   0.00000,1.00000,1,  100.0,     0.600,     0.196,   1,1.0000,   0,1.0000,   0,1.0000,   0,1.0000,0, 1.0000
11362,'1 ',     0.699,     0.269,     0.269,    -0.034,1.04000,11361,     0.840,   0.00000,   0.26350,   0.00000,   0.00000,1.00000,1,  100.0,     0.700,     0.297,   1,1.0000,   0,1.0000,   0,1.0000,   0,1.0000,0, 1.0000
11363,'1 ',     0.699,     0.269,     0.269,    -0.034,1.04000,11361,     0.840,   0.00000,   0.26350,   0.00000,   0.00000,1.00000,1,  100.0,     0.700,     0.103,   1,1.0000,   0,1.0000,   0,1.0000,   0,1.0000,0, 1.0000
11365,'1 ',     0.611,     0.000,     0.606,    -0.159,1.04000,    0,     1.560,   0.00000,   0.09830,   0.00000,   0.00000,1.00000,0,  100.0,     1.300,     0.611,   1,1.0000,   0,1.0000,   0,1.0000,   0,1.0000,0, 1.0000
11366,'1 ',     0.583,     0.000,     0.606,    -0.159,1.03000,11365,     1.560,   0.00000,   0.09830,   0.00000,   0.00000,1.00000,0,  100.0,     1.300,     0.583,   1,1.0000,   0,1.0000,   0,1.0000,   0,1.0000,0, 1.0000
11367,'1 ',     0.359,     0.000,     0.606,    -0.159,1.03000,11365,     1.560,   0.00000,   0.09830,   0.00000,   0.00000,1.00000,0,  100.0,     1.300,     0.359,   1,1.0000,   0,1.0000,   0,1.0000,   0,1.0000,0, 1.0000
11372,'1 ',   193.361,    13.315,    74.304,    -9.482,1.04000,11370,   232.200,   0.00000,   0.22000,   0.00000,   0.00000,1.00000,1,  100.0,   193.500,    39.816,   1,1.0000,   0,1.0000,   0,1.0000,   0,1.0000,0, 1.0000
11373,'1 ',   141.914,     0.000,    74.304,    -9.482,1.04000,11370,   232.200,   0.00000,   0.22000,   0.00000,   0.00000,1.00000,0,  100.0,   193.500,    31.963,   1,1.0000,   0,1.0000,   0,1.0000,   0,1.0000,0, 1.0000
11374,'1 ',   193.361,    13.315,    74.304,    -9.482,1.04000,11370,   232.200,   0.00000,   0.22000,   0.00000,   0.00000,1.00000,1,  100.0,   193.500,    31.339,   1,1.0000,   0,1.0000,   0,1.0000,   0,1.0000,0, 1.0000
11375,'1 ',   193.361,    13.315,    74.304,    -9.482,1.04000,11370,   232.200,   0.00000,   0.22000,   0.00000,   0.00000,1.00000,1,  100.0,   193.500,    40.921,   1,1.0000,   0,1.0000,   0,1.0000,   0,1.0000,0, 1.0000
11380,'1 ',   888.264,    65.422,   327.115,   -72.890,1.04200,11378,  1066.680,   0.00000,   0.30750,   0.00000,   0.00000,1.00000,1,  100.0,   888.900,   358.443,   1,1.0000,   0,1.0000,   0,1.0000,   0,1.0000,0, 1.0000
11381,'1 ',   888.264,    65.422,   327.115,   -72.890,1.04200,11378,  1066.680,   0.00000,   0.30750,   0.00000,   0.00000,1.00000,1,  100.0,   888.900,   250.852,   1,1.0000,   0,1.0000,   0,1.0000,   0,1.0000,0, 1.0000
11382,'1 ',   888.264,    65.422,   327.115,   -72.890,1.04200,11378,  1066.680,   0.00000,   0.30750,   0.00000,   0.00000,1.00000,1,  100.0,   888.900,   196.865,   1,1.0000,   0,1.0000,   0,1.0000,   0,1.0000,0, 1.0000
11389,'1 ',   196.859,   -16.061,   100.273,   -21.867,1.04000,11386,   236.400,   0.00000,   0.29460,   0.00000,   0.00000,1.00000,1,  100.0,   197.000,    89.231,   1,1.0000,   0,1.0000,   0,1.0000,   0,1.0000,0, 1.0000
11390,'1 ',   196.859,   -16.061,   100.273,   -21.867,1.04000,11386,   236.400,   0.00000,   0.29460,   0.00000,   0.00000,1.00000,1,  100.0,   197.000,    84.261,   1,1.0000,   0,1.0000,   0,1.0000,   0,1.0000,0, 1.0000
11391,'1 ',   196.859,   -16.061,   100.273,   -21.867,1.04000,11386,   236.400,   0.00000,   0.29460,   0.00000,   0.00000,1.00000,1,  100.0,   197.000,    82.383,   1,1.0000,   0,1.0000,   0,1.0000,   0,1.0000,0, 1.0000
11392,'1 ',   196.859,   -16.061,   100.273,   -21.867,1.04000,11386,   236.400,   0.00000,   0.29460,   0.00000,   0.00000,1.00000,1,  100.0,   197.000,    26.042,   1,1.0000,   0,1.0000,   0,1.0000,   0,1.0000,0, 1.0000
11393,'1 ',   196.859,   -16.061,   100.273,   -21.867,1.04000,11386,   236.400,   0.00000,   0.29460,   0.00000,   0.00000,1.00000,1,  100.0,   197.000,    33.651,   1,1.0000,   0,1.0000,   0,1.0000,   0,1.0000,0, 1.0000
11396,'1 ',     1.675,     0.000,     0.643,    -0.082,1.03800,    0,     2.010,   0.00000,   0.39190,   0.00000,   0.00000,1.00000,0,  100.0,     1.675,     0.363,   1,1.0000,   0,1.0000,   0,1.0000,   0,1.0000,0, 1.0000
11396,'2 ',     1.200,     0.000,     0.643,    -0.082,1.03800,    0,     2.010,   0.00000,   0.39190,   0.00000,   0.00000,1.00000,0,  100.0,     1.675,     0.442,   1,1.0000,   0,1.0000,   0,1.0000,   0,1.0000,0, 1.0000
11396,'3 ',     1.674,    -0.082,     0.643,    -0.082,1.03800,    0,     2.010,   0.00000,   0.39190,   0.00000,   0.00000,1.00000,1,  100.0,     1.675,     0.563,   1,1.0000,   0,1.0000,   0,1.0000,   0,1.0000,0, 1.0000
11396,'4 ',     1.674,    -0.082,     0.643,    -0.082,1.03800,    0,     2.010,   0.00000,   0.39190,   0.00000,   0.00000,1.00000,1,  100.0,     1.675,     0.285,   1,1.0000,   0,1.0000,   0,1.0000,   0,1.0000,0, 1.0000
11397,'1 ',     3.298,     1.267,     1.267,    -0.162,1.04550,    0,     3.960,   0.00000,   0.22040,   0.00000,   0.00000,1.00000,1,  100.0,     3.300,     0.441,   1,1.0000,   0,1.0000,   0,1.0000,   0,1.0000,0, 1.0000
11401,'1 ',     3.098,    -0.135,     1.190,    -0.152,1.03224,11400,     3.720,   0.00000,   0.27060,   0.00000,   0.00000,1.00000,1,  100.0,     3.100,     0.829,   1,1.0000,   0,1.0000,   0,1.0000,   0,1.0000,0, 1.0000
11402,'1 ',     2.557,     0.000,     1.190,    -0.152,1.03224,11400,     3.720,   0.00000,   0.27060,   0.00000,   0.00000,1.00000,0,  100.0,     3.100,     0.980,   1,1.0000,   0,1.0000,   0,1.0000,   0,1.0000,0, 1.0000
11406,'1 ',     0.657,     0.000,     0.769,    -0.201,1.04951,11405,     1.980,   0.00000,   0.19750,   0.00000,   0.00000,1.00000,0,  100.0,     1.650,     0.657,   1,1.0000,   0,1.0000,   0,1.0000,   0,1.0000,0, 1.0000
11406,'2 ',     1.649,     0.769,     0.769,    -0.201,1.04951,11405,     1.980,   0.00000,   0.19750,   0.00000,   0.00000,1.00000,1,  100.0,     1.650,     0.190,   1,1.0000,   0,1.0000,   0,1.0000,   0,1.0000,0, 1.0000
11407,'1 ',     0.239,     0.000,     0.233,    -0.061,1.04951,11405,     0.600,   0.00000,   0.10270,   0.00000,   0.00000,1.00000,0,  100.0,     0.500,     0.239,   1,1.0000,   0,1.0000,   0,1.0000,   0,1.0000,0, 1.0000
11407,'2 ',     0.500,     0.233,     0.233,    -0.061,1.04951,11405,     0.600,   0.00000,   0.10270,   0.00000,   0.00000,1.00000,1,  100.0,     0.500,     0.215,   1,1.0000,   0,1.0000,   0,1.0000,   0,1.0000,0, 1.0000
11412,'1 ',     2.998,    -0.147,     1.152,    -0.147,1.04300,    0,     3.600,   0.00000,   0.13640,   0.00000,   0.00000,1.00000,1,  100.0,     3.000,     1.347,   1,1.0000,   0,1.0000,   0,1.0000,   0,1.0000,0, 1.0000
11412,'2 ',     2.998,    -0.147,     1.152,    -0.147,1.04300,    0,     3.600,   0.00000,   0.13640,   0.00000,   0.00000,1.00000,1,  100.0,     3.000,     0.682,   1,1.0000,   0,1.0000,   0,1.0000,   0,1.0000,0, 1.0000
11412,'3 ',     2.998,    -0.147,     1.152,    -0.147,1.04300,    0,     3.600,   0.00000,   0.13640,   0.00000,   0.00000,1.00000,1,  100.0,     3.000,     0.339,   1,1.0000,   0,1.0000,   0,1.0000,   0,1.0000,0, 1.0000
11412,'4 ',     2.998,    -0.147,     1.152,    -0.147,1.04300,    0,     3.600,   0.00000,   0.13640,   0.00000,   0.00000,1.00000,1,  100.0,     3.000,     0.920,   1,1.0000,   0,1.0000,   0,1.0000,   0,1.0000,0, 1.0000
11412,'5 ',     2.669,     0.000,     1.152,    -0.147,1.04300,    0,     3.600,   0.00000,   0.13640,   0.00000,   0.00000,1.00000,0,  100.0,     3.000,     1.327,   1,1.0000,   0,1.0000,   0,1.0000,   0,1.0000,0, 1.0000
11412,'6 ',     2.319,     0.000,     1.152,    -0.147,1.04300,    0,     3.600,   0.00000,   0.13640,   0.00000,   0.00000,1.00000,0,  100.0,     3.000,     0.732,   1,1.0000,   0,1.0000,   0,1.0000,   0,1.0000,0, 1.0000
11415,'1 ',     1.160,     0.000,     1.351,    -0.354,1.01300,11414,     3.480,   0.00000,   0.13870,   0.00000,   0.00000,1.00000,0,  100.0,     2.900,     1.160,   1,1.0000,   0,1.0000,   0,1.0000,   0,1.0000,0, 1.0000
11417,'1 ',     2.898,     1.351,     1.351,    -0.354,1.04000,    0,     3.480,   0.00000,   0.20460,   0.00000,   0.00000,1.00000,1,  100.0,     2.900,     1.353,   1,1.0000,   0,1.0000,   0,1.0000,   0,1.0000,0, 1.0000
11421,'1 ',   174.875,    89.075,    89.075,   -19.425,1.04500,11418,   210.000,   0.00000,   0.14810,   0.00000,   0.00000,1.00000,1,  100.0,   175.000,    83.091,   1,1.0000,   0,1.0000,   0,1.0000,   0,1.0000,0, 1.0000
11422,'1 ',    53.961,    27.486,    27.486,    -5.994,1.04500,11418,    64.800,   0.00000,   0.12420,   0.00000,   0.00000,1.00000,1,  100.0,    54.000,    15.818,   1,1.0000,   0,1.0000,   0,1.0000,   0,1.0000,0, 1.0000
11423,'1 ',    53.961,    27.486,    27.486,    -5.994,1.04500,11418,    64.800,   0.00000,   0.12420,   0.00000,   0.00000,1.00000,1,  100.0,    54.000,    26.703,   1,1.0000,   0,1.0000,   0,1.0000,   0,1.0000,0, 1.0000
11433,'1 ',  1204.237,   205.584,   443.477,   -98.818,1.04200,11428,  1446.120,   0.00000,   0.26970,   0.00000,   0.00000,1.00000,1,  100.0,  1205.100,   277.375,   1,1.0000,   0,1.0000,   0,1.0000,   0,1.0000,0, 1.0000
11434,'1 ',  1204.237,   205.584,   443.477,   -98.818,1.04200,11428,  1446.120,   0.00000,   0.26970,   0.00000,   0.00000,1.00000,1,  100.0,  1205.100,   391.052,   1,1.0000,   0,1.0000,   0,1.0000,   0,1.0000,0, 1.0000
11440,'1 ',   173.209,    16.262,    88.227,   -19.240,1.05500,11437,   208.000,   0.00000,   0.11030,   0.00000,   0.00000,1.00000,1,  100.0,   173.333,    65.272,   1,1.0000,   0,1.0000,   0,1.0000,   0,1.0000,0, 1.0000
11441,'1 ',   173.209,    16.262,    88.227,   -19.240,1.05500,11437,   208.000,   0.00000,   0.11030,   0.00000,   0.00000,1.00000,1,  100.0,   173.333,    65.225,   1,1.0000,   0,1.0000,   0,1.0000,   0,1.0000,0, 1.0000
...