ipss.tutorial/python_integration/results/ACTIVSg25k_lf_results.txt


                                              Load Flow Results


                                             Max Power Mismatches
                                 Bus              dPmax       Bus              dQmax
                                -------------------------------------------------------
                                Bus43762         0.000025  Bus23738         0.000060 (pu)
                                                2.4550740                   5.956715 (kva)

  X------- FROM BUS ------X AREA  VOLT            GEN    LOAD    SHUNT  X---------- TO BUS ----------X                        TRANSFORMER    RATING A
    BUS# X-- NAME --X BASKV ZONE  PU/KV  ANGLE  MW/MVAR MW/MVAR MW/MVAR   BUS# X-- NAME --X BASKV AREA CKT    MW     MVAR    RATIO   ANGLE   %I   MVA

   11001 NEWBERRY 1  138.00   11 1.0100  -10.5     0.0      0.0     0.0 -----------------------------------------------------------------------------
                               1 139.38            0.0      0.0     0.0  11005 NEWBERRY 5  138.00   11  1     53.2    12.6                 
                                                                         11006 NEWBERRY 7  138.00   11  1    -58.0    -4.6                 
                                                                        100000 3WXfr StarBus138.00    0  1      4.8    -8.0  1.000LK        

   11002 NEWBERRY 2  69.000   11 1.0216  -10.9     0.0      0.0     0.0 -----------------------------------------------------------------------------
                               1 70.491            0.0      0.0     0.0  19072 PROSPERITY~369.000   19  1     15.5    -4.1                   30    53
                                                                        100000 3WXfr StarBus138.00    0  1     -4.8     8.1  1.000UN        
                                                                         11454 CHAPPELLS 4 69.000   11  1    -10.7    -4.1                   22    52

   11003 NEWBERRY 3  18.000   11 1.0310  -11.3     0.0      0.0     0.0 -----------------------------------------------------------------------------
                               1 18.559            0.0      0.0     0.0 100000 3WXfr StarBus138.00    0  1      0.0     0.0  1.000UN        

   11005 NEWBERRY 5  138.00   11 1.0098  -10.5     0.0     53.2     0.0 -----------------------------------------------------------------------------
                               1 139.35            0.0     12.6     0.0  11001 NEWBERRY 1  138.00   11  1    -53.2   -12.6                 

   11006 NEWBERRY 7  138.00   11 1.0102  -10.5     0.0      0.0     0.0 -----------------------------------------------------------------------------
                               1 139.41            0.0      0.0     0.0  11001 NEWBERRY 1  138.00   11  1     58.0     4.6                 
                                                                         11039 CLINTON 12 1138.00   11  1    -58.0    -4.6                   27   219

   11007 POMARIA 1   69.000   11 1.0420  -12.2     0.0      0.0     0.0 -----------------------------------------------------------------------------
                               1 71.901            0.0      0.0     0.0  19212 JENKINSVIL~369.000   19  1    -12.4    -1.6                   20    61
                                                                         11008 POMARIA 2   69.000   11  1      5.9     1.5                 
                                                                         11334 CARLISLE 4 169.000   11  1      6.5     0.1                   12    56

   11008 POMARIA 2   69.000   11 1.0420  -12.2     0.0      5.9     0.0 -----------------------------------------------------------------------------
                               1 71.899            0.0      1.5     0.0  11007 POMARIA 1   69.000   11  1     -5.9    -1.5                 

   11009 WHITMIRE 1  69.000   11 1.0327  -13.1     0.0     12.3     0.0 -----------------------------------------------------------------------------
                               1 71.255            0.0      2.8     0.0  11010 WHITMIRE 2  69.000   11  1    -12.3    -2.8                 

   11010 WHITMIRE 2  69.000   11 1.0327  -13.1     0.0      0.0     0.0 -----------------------------------------------------------------------------
                               1 71.260            0.0      0.0     0.0  11009 WHITMIRE 1  69.000   11  1     12.3     2.8                 
                                                                         11305 UNION 5 5   69.000   11  1     -4.4    -0.3                   10    45
                                                                         11334 CARLISLE 4 169.000   11  1     -7.9    -2.5                   14    59

   11011 SPARTANBUR~169.000   11 1.0393  -14.2     0.0      0.0     0.0 -----------------------------------------------------------------------------
                               1 71.715            0.0      0.0     0.0  11012 SPARTANBUR~269.000   11  1     41.5     5.2                 
                                                                         11013 SPARTANBUR~369.000   11  1    -41.5    35.9                 
                                                                         11014 SPARTANBUR~469.000   11  1      0.0    -0.0                 
                                                                         11015 SPARTANBUR~569.000   11  1      0.0    -0.0                 

   11012 SPARTANBUR~269.000   11 1.0392  -14.2     0.0     41.5     0.0 -----------------------------------------------------------------------------
                               1 71.704            0.0      5.2     0.0  11011 SPARTANBUR~169.000   11  1    -41.5    -5.2                 

   11013 SPARTANBUR~369.000   11 1.0390  -14.2     0.0      0.0     0.0 -----------------------------------------------------------------------------
                               1 71.692            0.0      0.0     0.0  11011 SPARTANBUR~169.000   11  1     41.5   -35.8                 
                                                                         33230 COLUMBUS 2 169.000   33  1     -9.2    11.0                   27    54
                                                                         11021 SPARTANBU~1169.000   11  1      2.6    -6.1                   14    47
                                                                         11054 INMAN 2 2   69.000   11  1    -35.0    30.9                   66    70

   11014 SPARTANBUR~469.000   11 1.0393  -14.2     0.0      0.0     0.0 -----------------------------------------------------------------------------
                               1 71.715            0.0      0.0     0.0  11011 SPARTANBUR~169.000   11  1      0.0    -0.0                 

   11015 SPARTANBUR~569.000   11 1.0393  -14.2     0.0      0.0     0.0 -----------------------------------------------------------------------------
                               1 71.715            0.0      0.0     0.0  11011 SPARTANBUR~169.000   11  1      0.0    -0.0                 

   11016 SPARTANBUR~6138.00   11 1.0102   -9.6     0.0      0.0     0.0 -----------------------------------------------------------------------------
                               1 139.41            0.0      0.0     0.0  11053 INMAN 2 1   138.00   11  1     52.8    -2.9                   25   215
                                                                         11017 SPARTANBUR~769.000   11  1     47.8    15.3  1.000UN          54    93
                                                                         11018 SPARTANBUR~8138.00   11  1     40.6    10.9                 
                                                                         11175 GREER 4 2   138.00   11  1   -141.2   -23.3                   55   260

   11017 SPARTANBUR~769.000   11 1.0368  -12.6     0.0      0.0     0.0 -----------------------------------------------------------------------------
                               1 71.540            0.0      0.0     0.0  11069 MOORE 2     69.000   11  1      5.5    18.7                   43    46
                                                                         11025 SPARTANBU~1569.000   11  1     42.2    -6.1                   59    73
                                                                         11016 SPARTANBUR~6138.00   11  1    -47.7   -12.6  1.044LK          53    93

   11018 SPARTANBUR~8138.00   11 1.0100   -9.7     0.0     40.6     0.0 -----------------------------------------------------------------------------
                               1 139.38            0.0     10.9     0.0  11016 SPARTANBUR~6138.00   11  1    -40.6   -10.9                 

   11019 SPARTANBUR~9138.00   11 1.0201   -9.7     0.0      0.0     0.0 -----------------------------------------------------------------------------
                               1 140.77            0.0      0.0     0.0  33351 CONCORD 17~1138.00   33  1     27.9   -31.0                   22   188
                                                                         11020 SPARTANBU~10138.00   11  1     43.1    31.8                 
                                                                         11168 GREER 2 1   138.00   11  1    -71.0    -0.8                   32   224

   11020 SPARTANBU~10138.00   11 1.0196   -9.7     0.0     43.1     0.0 -----------------------------------------------------------------------------
                               1 140.70            0.0     31.8     0.0  11019 SPARTANBUR~9138.00   11  1    -43.1   -31.8                 

   11021 SPARTANBU~1169.000   11 1.0409  -14.3     0.0      0.0     0.0 -----------------------------------------------------------------------------
                               1 71.819            0.0      0.0     0.0  11013 SPARTANBUR~369.000   11  1     -2.6     6.0                   14    47
                                                                         11028 SPARTANBU~1869.000   11  1    -29.9     8.9                   46    68
                                                                         11022 SPARTANBU~1269.000   11  1     32.6    13.4                 

   11022 SPARTANBU~1269.000   11 1.0406  -14.3     0.0     32.6     0.0 -----------------------------------------------------------------------------
                               1 71.803            0.0     13.4     0.0  11021 SPARTANBU~1169.000   11  1    -32.6   -13.4                 

   11023 SPARTANBU~1369.000   11 1.0259  -13.2     0.0     32.6     0.0 -----------------------------------------------------------------------------
                               1 70.789            0.0     11.0     0.0  11036 CAMPOBELLO 169.000   11  1     16.3   -30.6                   54    64
                                                                         11054 INMAN 2 2   69.000   11  1    -45.7    18.1                   67    73
                                                                         11076 WELLFORD 1 169.000   11  1    -26.2    14.3                   45    67
                                                                         11408 CHESNEE 2 4 69.000   11  1     23.0   -12.9                   41    64

   11024 SPARTANBU~1469.000   11 1.0328  -13.5     0.0      0.0     0.0 -----------------------------------------------------------------------------
                               1 71.265            0.0      0.0     0.0  11025 SPARTANBU~1569.000   11  1    -42.6    -6.8                 
                                                                         11026 SPARTANBU~1669.000   11  1     42.6     6.8                 

   11025 SPARTANBU~1569.000   11 1.0330  -13.4     0.0      0.0     0.0 -----------------------------------------------------------------------------
                               1 71.276            0.0      0.0     0.0  11017 SPARTANBUR~769.000   11  1    -42.0     6.3                   58    73
                                                                         11024 SPARTANBU~1469.000   11  1     42.6     6.8                 
                                                                         11028 SPARTANBU~1869.000   11  1     -0.7   -13.1                   27    49

   11026 SPARTANBU~1669.000   11 1.0327  -13.5     0.0     42.6     0.0 -----------------------------------------------------------------------------
                               1 71.253            0.0      6.8     0.0  11024 SPARTANBU~1469.000   11  1    -42.6    -6.8                 

   11027 SPARTANBU~17138.00   11 1.0210   -9.5     0.0      0.0     0.0 -----------------------------------------------------------------------------
                               1 140.90            0.0      0.0     0.0  11081 WOODRUFF 5  138.00   11  1     -9.3    19.9                   15   148
                                                                         11028 SPARTANBU~1869.000   11  1     49.4     3.2  1.000UN          53    93
                                                                         11029 SPARTANBU~19138.00   11  1     50.0     8.4                 
                                                                         11031 BOILING SP~4138.00   11  1     19.5   -36.8                   25   170
                                                                         11168 GREER 2 1   138.00   11  1   -109.6     5.4                   45   245

   11028 SPARTANBU~1869.000   11 1.0420  -13.7     0.0      0.0     0.0 -----------------------------------------------------------------------------
                               1 71.895            0.0      0.0     0.0  11025 SPARTANBU~1569.000   11  1      0.7    12.7                   26    49
                                                                         11021 SPARTANBU~1169.000   11  1     30.1    -8.7                   46    68
                                                                         11499 CONVERSE 1  69.000   11  1     18.5    -4.5                   32    59
                                                                         11027 SPARTANBU~17138.00   11  1    -49.3     0.4  1.025LK          53    93

   11029 SPARTANBU~19138.00   11 1.0208   -9.5     0.0     50.0     0.0 -----------------------------------------------------------------------------
                               1 140.87            0.0      8.4     0.0  11027 SPARTANBU~17138.00   11  1    -50.0    -8.4                 

   11030 BOILING SP~3345.00   11 1.0344   -7.7     0.0      0.0     0.0 -----------------------------------------------------------------------------
                               1 356.88            0.0      0.0     0.0  11034 BOILING SP~7345.00   11  1   -142.1   -32.6                 
                                                                         11035 BOILING SP~8345.00   11  1      0.0    -0.0                 
                                                                        100001 3WXfr StarBus345.00    0  1    142.1    32.6  1.000LK        

   11031 BOILING SP~4138.00   11 1.0262   -9.7     0.0     58.7     0.0 -----------------------------------------------------------------------------
                               1 141.62            0.0      8.5     0.0  11027 SPARTANBU~17138.00   11  1    -19.4    35.9                   24   170
                                                                         11052 INMAN 1 1   138.00   11  1     48.0    23.3                   25   215
                                                                         33351 CONCORD 17~1138.00   33  1     54.7   -40.4                   33   207
                                                                        100001 3WXfr StarBus345.00    0  1   -142.0   -27.4  1.000UN        

   11032 BOILING SP~524.000   11 1.0209  -11.2     0.0      0.0     0.0 -----------------------------------------------------------------------------
                               1 24.502            0.0      0.0     0.0 100001 3WXfr StarBus345.00    0  1      0.0    -0.0  1.000UN        

   11034 BOILING SP~7345.00   11 1.0351   -7.6     0.0      0.0     0.0 -----------------------------------------------------------------------------
                               1 357.11            0.0      0.0     0.0  11030 BOILING SP~3345.00   11  1    142.2    32.8                 
                                                                         11178 GREER 4 6   345.00   11  1   -597.4    84.6                   49  1230
                                                                         33349 CONCORD 17 7345.00   33  1    455.3  -117.5                   39  1192

   11035 BOILING SP~8345.00   11 1.0344   -7.7     0.0      0.0     0.0 -----------------------------------------------------------------------------
                               1 356.88            0.0      0.0     0.0  11030 BOILING SP~3345.00   11  1      0.0    -0.0                 

   11036 CAMPOBELLO 169.000   11 1.0348  -13.8     0.0     22.8     0.0 -----------------------------------------------------------------------------
                               1 71.402            0.0      4.5     0.0  11023 SPARTANBU~1369.000   11  1    -16.1    28.8                   52    64
                                                                         33273 MILL SPRIN~369.000   33  1    -20.5     8.2                   40    56
                                                                         33292 TRYON 1     69.000   33  1     13.8     1.4                   25    56

   11037 CHESNEE 1 1 69.000   11 1.0391  -15.2     0.0      0.0     0.0 -----------------------------------------------------------------------------
                               1 71.695            0.0      0.0     0.0  11499 CONVERSE 1  69.000   11  1    -23.7    10.2                   40    64
                                                                         11038 CHESNEE 1 2 69.000   11  1     37.6    16.1                 
                                                                         11408 CHESNEE 2 4 69.000   11  1    -13.9    16.9                   38    58

   11038 CHESNEE 1 2 69.000   11 1.0388  -15.2     0.0     37.6     0.0 -----------------------------------------------------------------------------
                               1 71.677            0.0     16.1     0.0  11037 CHESNEE 1 1 69.000   11  1    -37.6   -16.1                 

   11039 CLINTON 12 1138.00   11 1.0185   -8.7     0.0     48.5     0.0 -----------------------------------------------------------------------------
                               1 140.56            0.0      5.2     0.0  11006 NEWBERRY 7  138.00   11  1     58.4     3.9                   27   219
                                                                         11065 LAURENS 6   138.00   11  1    -64.1    -0.6                   29   220
                                                                         11162 GREENWOOD~13138.00   11  1    -42.7    -8.5                   20   214

   11040 COWPENS 1   69.000   11 1.0375  -14.3     0.0     23.0     0.0 -----------------------------------------------------------------------------
                               1 71.588            0.0      5.4     0.0  11314 GAFFNEY 3 2 69.000   11  1    -27.3     1.5                   40    68
                                                                         11499 CONVERSE 1  69.000   11  1      4.2    -6.9                   15    54

   11041 DUNCAN 1    69.000   11 1.0237  -12.6     0.0      0.0     0.0 -----------------------------------------------------------------------------
                               1 70.633            0.0      0.0     0.0  11295 WELLFORD 2 369.000   11  1     -3.7    -4.9                   12    50
                                                                         11042 DUNCAN 2    69.000   11  1     29.5     2.7                 
                                                                         11054 INMAN 2 2   69.000   11  1    -12.2    -3.2                   22    57
                                                                         11069 MOORE 2     69.000   11  1     -2.8     1.9                    9    39
                                                                         11076 WELLFORD 1 169.000   11  1    -10.8     3.5                   20    57

   11042 DUNCAN 2    69.000   11 1.0236  -12.6     0.0     29.5     0.0 -----------------------------------------------------------------------------
                               1 70.626            0.0      2.6     0.0  11041 DUNCAN 1    69.000   11  1    -29.5    -2.6                 

   11043 ENOREE 1    69.000   11 1.0055  -13.2     0.0      0.4     0.0 -----------------------------------------------------------------------------
                               1 69.380            0.0      0.1     0.0  11044 ENOREE 2    69.000   11  1    -15.1    -3.2                 
                                                                         11045 ENOREE 4    69.000   11  1     14.7     3.1                 
                                                                         11046 ENOREE 6    69.000   11  1      0.0    -0.0                 

   11044 ENOREE 2    69.000   11 1.0056  -13.2     0.0      0.0     0.0 -----------------------------------------------------------------------------
                               1 69.385            0.0      0.0     0.0  11043 ENOREE 1    69.000   11  1     15.1     3.2                 
                                                                         11150 GRAY COURT 169.000   11  1    -18.1     3.6                   31    60
                                                                         11312 UNION 6 5   69.000   11  1      3.1    -6.8                   18    41

   11045 ENOREE 4    69.000   11 1.0054  -13.2     0.0     14.7     0.0 -----------------------------------------------------------------------------
                               1 69.375            0.0      3.1     0.0  11043 ENOREE 1    69.000   11  1    -14.7    -3.1                 

   11046 ENOREE 6    69.000   11 1.0055  -13.2     0.0      0.0     0.0 -----------------------------------------------------------------------------
                               1 69.380            0.0      0.0     0.0  11043 ENOREE 1    69.000   11  1      0.0    -0.0                 

   11047 GAFFNEY 1 1 138.00   11 1.0379  -12.6     0.0      0.0     0.0 -----------------------------------------------------------------------------
                               1 143.24            0.0      0.0     0.0  11048 GAFFNEY 1 2 69.000   11  1     10.7    14.1  1.000UN          26    69
                                                                         11049 GAFFNEY 1 3 138.00   11  1    -10.7   -14.1                 

   11048 GAFFNEY 1 2 69.000   11 1.0449  -13.6     0.0     58.8     0.0 -----------------------------------------------------------------------------
                               1 72.098            0.0     13.1     0.0  11388 GAFFNEY 5 3 69.000   11  1    -33.5    -0.2                   48    70
                                                                         11413 BLACKSBUR~1769.000   11  1    -14.6     0.7                   25    58
                                                                         11047 GAFFNEY 1 1 138.00   11  1    -10.7   -13.6  1.031LK          25    69

   11049 GAFFNEY 1 3 138.00   11 1.0381  -12.6     0.0      0.0     0.0 -----------------------------------------------------------------------------
                               1 143.26            0.0      0.0     0.0  11047 GAFFNEY 1 1 138.00   11  1     10.7    14.1                 
                                                                         11289 YORK 15 5   138.00   11  1     70.2    -8.4                   32   222
                                                                         11395 GAFFNEY 5 11138.00   11  1    -80.9    -5.7                   35   229

   11050 GAFFNEY 2 1 69.000   11 1.0405  -13.5     0.0      0.0     0.0 -----------------------------------------------------------------------------
                               1 71.792            0.0      0.0     0.0  11388 GAFFNEY 5 3 69.000   11  1    -24.7    -5.4                   39    65
                                                                         11051 GAFFNEY 2 2 69.000   11  1     50.3    13.6                 
                                                                         11314 GAFFNEY 3 2 69.000   11  1    -25.6    -8.2                   41    66

   11051 GAFFNEY 2 2 69.000   11 1.0402  -13.5     0.0     50.3     0.0 -----------------------------------------------------------------------------
                               1 71.773            0.0     13.6     0.0  11050 GAFFNEY 2 1 69.000   11  1    -50.3   -13.6                 

   11052 INMAN 1 1   138.00   11 1.0148  -10.5     0.0     39.4     0.0 -----------------------------------------------------------------------------
                               1 140.05            0.0      5.7     0.0  33071 RUTHERFORD~3138.00   33  1      6.8     6.5                    5   179
                                                                         11031 BOILING SP~4138.00   11  1    -47.8   -24.4                   25   215
                                                                         11053 INMAN 2 1   138.00   11  1      1.6    12.2                    8   158

   11053 INMAN 2 1   138.00   11 1.0087  -10.5     0.0      0.0     0.0 -----------------------------------------------------------------------------
                               1 139.20            0.0      0.0     0.0  11052 INMAN 1 1   138.00   11  1     -1.6   -13.4                    9   158
                                                                         11054 INMAN 2 2   69.000   11  1     15.1    -8.5  1.000UN          25    70
                                                                         11016 SPARTANBUR~6138.00   11  1    -52.6     2.5                   25   215
                                                                         11055 INMAN 2 3   138.00   11  1     39.2    19.4                 

   11054 INMAN 2 2   69.000   11 1.0269  -12.3     0.0      0.0     0.0 -----------------------------------------------------------------------------
                               1 70.856            0.0      0.0     0.0  11013 SPARTANBUR~369.000   11  1     35.6   -30.2                   66    70
                                                                         11023 SPARTANBU~1369.000   11  1     46.0   -17.7                   67    73
                                                                         11041 DUNCAN 1    69.000   11  1     12.2     3.1                   22    57
                                                                         11066 LYMAN 1     69.000   11  1     21.3    -2.5                   34    63
                                                                         11167 GREER 1 4   69.000   11  1    -36.0    12.9                   46    83
                                                                         11167 GREER 1 4   69.000   11  2    -36.0    12.9                   46    83
                                                                         11167 GREER 1 4   69.000   11  3    -36.0    12.9                   46    83
                                                                         11295 WELLFORD 2 369.000   11  1      7.9    -0.6                   15    53
                                                                         11053 INMAN 2 1   138.00   11  1    -15.1     9.2  1.000LK          25    70

   11055 INMAN 2 3   138.00   11 1.0084  -10.5     0.0     39.2     0.0 -----------------------------------------------------------------------------
                               1 139.16            0.0     19.4     0.0  11053 INMAN 2 1   138.00   11  1    -39.2   -19.4                 

   11056 JONESVILLE~769.000   11 1.0083  -14.1     0.0     10.9     0.0 -----------------------------------------------------------------------------
                               1 69.573            0.0      1.4     0.0  11070 PACOLET 1 1 69.000   11  1      5.8    -1.3                   11    53
                                                                         11312 UNION 6 5   69.000   11  1    -16.7    -0.2                   27    62

   11057 LANDRUM 1   69.000   11 1.0334  -13.9     0.0      0.0     0.0 -----------------------------------------------------------------------------
                               1 71.303            0.0      0.0     0.0  11058 LANDRUM 2   69.000   11  1     21.0     2.3                 
                                                                         11059 LANDRUM 4   69.000   11  1    -21.0    25.5                 
                                                                         11060 LANDRUM 6   69.000   11  1      0.0    -0.0                 

   11058 LANDRUM 2   69.000   11 1.0333  -13.9     0.0     21.0     0.0 -----------------------------------------------------------------------------
                               1 71.299            0.0      2.3     0.0  11057 LANDRUM 1   69.000   11  1    -21.0    -2.3                 

   11059 LANDRUM 4   69.000   11 1.0331  -13.9     0.0      0.0     0.0 -----------------------------------------------------------------------------
                               1 71.287            0.0      0.0     0.0  11057 LANDRUM 1   69.000   11  1     21.0   -25.4                 
                                                                         33292 TRYON 1     69.000   33  1      3.3    -0.5                    7    50
                                                                         11066 LYMAN 1     69.000   11  1    -24.3    25.9                   55    65

...